*SPEF "1481-1998"
*DESIGN "top"
*DATE "Sun May 25 01:48:14 2025"
*VENDOR "Synopsys, Inc."
*PROGRAM "fc /mnt/vol_synopsys2023/synopsys/fusioncompiler/U-2022.12-SP6/linux64/nwtn/bin/dgcom_exec"
*VERSION "U-2022.12-SP6 Aug 25, 2023"
*DESIGN_FLOW "ICC2 SPEF DR"
*DIVIDER /
*DELIMITER :
*BUS_DELIMITER [ ]
*T_UNIT 1 NS
*C_UNIT 1 PF
*R_UNIT 1 KOHM
*L_UNIT 1 HENRY

// XY_UNIT 1 UM
// PARASITIC_TECH RC_Best at 125.000 degree

*NAME_MAP
*1 clk
*2 rst
*3 enable
*4 load
*5 serial_in
*6 mode[1]
*7 mode[0]
*8 parallel_in[63]
*9 parallel_in[62]
*10 parallel_in[61]
*11 parallel_in[60]
*12 parallel_in[59]
*13 parallel_in[58]
*14 parallel_in[57]
*15 parallel_in[56]
*16 parallel_in[55]
*17 parallel_in[54]
*18 parallel_in[53]
*19 parallel_in[52]
*20 parallel_in[51]
*21 parallel_in[50]
*22 parallel_in[49]
*23 parallel_in[48]
*24 parallel_in[47]
*25 parallel_in[46]
*26 parallel_in[45]
*27 parallel_in[44]
*28 parallel_in[43]
*29 parallel_in[42]
*30 parallel_in[41]
*31 parallel_in[40]
*32 parallel_in[39]
*33 parallel_in[38]
*34 parallel_in[37]
*35 parallel_in[36]
*36 parallel_in[35]
*37 parallel_in[34]
*38 parallel_in[33]
*39 parallel_in[32]
*40 parallel_in[31]
*41 parallel_in[30]
*42 parallel_in[29]
*43 parallel_in[28]
*44 parallel_in[27]
*45 parallel_in[26]
*46 parallel_in[25]
*47 parallel_in[24]
*48 parallel_in[23]
*49 parallel_in[22]
*50 parallel_in[21]
*51 parallel_in[20]
*52 parallel_in[19]
*53 parallel_in[18]
*54 parallel_in[17]
*55 parallel_in[16]
*56 parallel_in[15]
*57 parallel_in[14]
*58 parallel_in[13]
*59 parallel_in[12]
*60 parallel_in[11]
*61 parallel_in[10]
*62 parallel_in[9]
*63 parallel_in[8]
*64 parallel_in[7]
*65 parallel_in[6]
*66 parallel_in[5]
*67 parallel_in[4]
*68 parallel_in[3]
*69 parallel_in[2]
*70 parallel_in[1]
*71 parallel_in[0]
*72 serial_out
*73 parallel_out[63]
*74 parallel_out[62]
*75 parallel_out[61]
*76 parallel_out[60]
*77 parallel_out[59]
*78 parallel_out[58]
*79 parallel_out[57]
*80 parallel_out[56]
*81 parallel_out[55]
*82 parallel_out[54]
*83 parallel_out[53]
*84 parallel_out[52]
*85 parallel_out[51]
*86 parallel_out[50]
*87 parallel_out[49]
*88 parallel_out[48]
*89 parallel_out[47]
*90 parallel_out[46]
*91 parallel_out[45]
*92 parallel_out[44]
*93 parallel_out[43]
*94 parallel_out[42]
*95 parallel_out[41]
*96 parallel_out[40]
*97 parallel_out[39]
*98 parallel_out[38]
*99 parallel_out[37]
*100 parallel_out[36]
*101 parallel_out[35]
*102 parallel_out[34]
*103 parallel_out[33]
*104 parallel_out[32]
*105 parallel_out[31]
*106 parallel_out[30]
*107 parallel_out[29]
*108 parallel_out[28]
*109 parallel_out[27]
*110 parallel_out[26]
*111 parallel_out[25]
*112 parallel_out[24]
*113 parallel_out[23]
*114 parallel_out[22]
*115 parallel_out[21]
*116 parallel_out[20]
*117 parallel_out[19]
*118 parallel_out[18]
*119 parallel_out[17]
*120 parallel_out[16]
*121 parallel_out[15]
*122 parallel_out[14]
*123 parallel_out[13]
*124 parallel_out[12]
*125 parallel_out[11]
*126 parallel_out[10]
*127 parallel_out[9]
*128 parallel_out[8]
*129 parallel_out[7]
*130 parallel_out[6]
*131 parallel_out[5]
*132 parallel_out[4]
*133 parallel_out[3]
*134 parallel_out[2]
*135 parallel_out[1]
*136 parallel_out[0]
*137 VDD
*138 VSS
*139 ctmi_2188
*140 reg_data_reg[63]
*141 reg_data_reg[62]
*142 p3_reg[14]
*143 p3_reg[13]
*144 p3_reg[12]
*145 p3_reg[11]
*146 p3_reg[10]
*147 p3_reg[9]
*148 p3_reg[8]
*149 p3_reg[7]
*150 p3_reg[6]
*151 p3_reg[5]
*152 p3_reg[4]
*153 p3_reg[3]
*154 p3_reg[2]
*155 p3_reg[1]
*156 p3_reg[0]
*157 ctmi_112
*158 place_optctmTdsLR_1_242
*159 phfnr_buf_342
*160 phfnr_buf_343
*161 place_optHFSBUF_3778_381
*162 phfnr_buf_346
*163 ctmi_116
*164 place_optctmTdsLR_1_3417
*165 ctmi_118
*166 ctmi_119
*167 phfnr_buf_349
*168 place_optHFSINV_167_372
*169 phfnr_buf_347
*170 ctmi_123
*171 ctmi_124
*172 ctmi_125
*173 phfnr_buf_348
*174 ctmi_127
*175 ctmi_128
*176 phfnr_buf_350
*177 ctmi_130
*178 ctmi_131
*179 ctmi_132
*180 ctmi_133
*181 phfnr_buf_351
*182 ctmi_2208
*183 reg_data_reg[61]
*184 reg_data_reg[60]
*185 reg_data_reg[59]
*186 reg_data_reg[58]
*187 reg_data_reg[57]
*188 reg_data_reg[56]
*189 reg_data_reg[55]
*190 reg_data_reg[54]
*191 reg_data_reg[53]
*192 reg_data_reg[52]
*193 reg_data_reg[51]
*194 reg_data_reg[50]
*195 reg_data_reg[49]
*196 reg_data_reg[48]
*197 p1_reg[12]
*198 p1_reg[11]
*199 p1_reg[15]
*200 p1_reg[14]
*201 p1_reg[13]
*202 p1_reg[10]
*203 p1_reg[9]
*204 p1_reg[8]
*205 p1_reg[7]
*206 p1_reg[6]
*207 p1_reg[4]
*208 reg_data_reg[47]
*209 p1_reg[5]
*210 reg_data_reg[46]
*211 p1_reg[3]
*212 p1_reg[2]
*213 ctmi_2715
*214 ctmi_2716
*215 ctmi_2717
*216 reg_data_reg[43]
*217 reg_data_reg[42]
*218 reg_data_reg[41]
*219 reg_data_reg[40]
*220 reg_data_reg[39]
*221 reg_data_reg[38]
*222 reg_data_reg[37]
*223 reg_data_reg[36]
*224 reg_data_reg[35]
*225 ctmi_2464
*226 reg_data_reg[34]
*227 reg_data_reg[33]
*228 reg_data_reg[32]
*229 reg_data_reg[31]
*230 reg_data_reg[30]
*231 reg_data_reg[29]
*232 reg_data_reg[28]
*233 reg_data_reg[27]
*234 reg_data_reg[26]
*235 reg_data_reg[25]
*236 reg_data_reg[24]
*237 reg_data_reg[23]
*238 ctmi_2475
*239 reg_data_reg[22]
*240 reg_data_reg[21]
*241 reg_data_reg[20]
*242 reg_data_reg[19]
*243 reg_data_reg[18]
*244 reg_data_reg[17]
*245 reg_data_reg[16]
*246 reg_data_reg[15]
*247 reg_data_reg[14]
*248 reg_data_reg[13]
*249 reg_data_reg[12]
*250 reg_data_reg[11]
*251 ctmi_2486
*252 reg_data_reg[10]
*253 reg_data_reg[9]
*254 reg_data_reg[8]
*255 reg_data_reg[7]
*256 reg_data_reg[6]
*257 reg_data_reg[5]
*258 reg_data_reg[4]
*259 reg_data_reg[3]
*260 reg_data_reg[2]
*261 reg_data_reg[1]
*262 reg_data_reg[0]
*263 ctmi_2497
*264 ctmi_2509
*265 ctmi_2520
*266 ctmi_2532
*267 ctmi_2543
*268 ctmi_2554
*269 ctmi_2565
*270 ctmi_2713
*271 ctmi_2571
*272 ctmi_2577
*273 ctmi_2583
*274 ctmi_2590
*275 ctmi_2597
*276 ctmi_2603
*277 ctmi_2609
*278 ctmi_2616
*279 ctmi_2623
*280 ctmi_2630
*281 ctmi_2636
*282 ctmi_2643
*283 ctmi_2649
*284 ctmi_2655
*285 ctmi_2661
*286 ctmi_2667
*287 ctmi_2671
*288 ctmi_2675
*289 ctmi_2679
*290 ctmi_2697
*291 ctmi_2703
*292 ctmi_2708
*293 ctmi_2712
*294 ctmi_2681
*295 place_optctmTdsLR_2_3416_roptpi_3419
*296 place_optoptlc_3438
*297 p1_reg[1]
*298 p1_reg[0]
*299 p2_reg[15]
*300 p2_reg[14]
*301 p2_reg[13]
*302 p2_reg[12]
*303 p2_reg[11]
*304 p2_reg[10]
*305 p2_reg[9]
*306 p2_reg[8]
*307 p2_reg[7]
*308 p2_reg[6]
*309 p2_reg[5]
*310 p2_reg[4]
*311 p2_reg[3]
*312 p2_reg[2]
*313 p2_reg[1]
*314 p2_reg[0]
*315 ctmi_2563
*316 ctmi_2665
*317 ctmi_2202
*318 ctmi_2200
*319 ctmi_2203
*320 ctmi_2564
*321 ctmi_2205
*322 ctmi_2530
*323 ctmi_2406
*324 ctmi_2552
*325 place_optoptlc_3439
*326 place_optoptlc_3440
*327 place_optoptlc_3441
*328 ctmi_2659
*329 ctmi_2541
*330 ctmi_2706
*331 ctmi_2653
*332 ctmi_2701
*333 ctmi_2647
*334 ctmi_2428
*335 ctmi_2588
*336 ctmi_2341
*337 ctmi_2417
*338 place_optctmTdsLR_2_3418
*339 ctmi_2581
*340 ctmi_2673
*341 ctmi_2575
*342 ctmi_2394
*343 ctmi_2669
*344 ctmi_2569
*345 ctmi_2473
*346 ctmi_2614
*347 ctmi_2293
*348 ctmi_2462
*349 ctmi_2607
*350 ctmi_2305
*351 ctmi_2451
*352 ctmi_2601
*353 ctmi_2317
*354 ctmi_2439
*355 ctmi_2595
*356 ctmi_2329
*357 ctmi_2518
*358 ctmi_2641
*359 ctmi_2250
*360 ctmi_2695
*361 ctmi_2507
*362 ctmi_2634
*363 ctmi_2495
*364 ctmi_2628
*365 ctmi_2269
*366 ctmi_2484
*367 ctmi_2621
*368 ctmi_2281
*369 ctmi_2666
*370 ctmi_2209
*371 ctmi_2553
*372 ctmi_2215
*373 ctmi_2711
*374 ctmi_2217
*375 ctmi_2660
*376 ctmi_2220
*377 ctmi_2542
*378 ctmi_2225
*379 ctmi_2707
*380 ctmi_2228
*381 ctmi_2654
*382 ctmi_2231
*383 ctmi_2531
*384 ctmi_2235
*385 ctmi_2702
*386 ctmi_2648
*387 ctmi_2238
*388 ctmi_2244
*389 ctmi_2241
*390 ctmi_135
*391 ctmi_2519
*392 ctmi_2248
*393 ctmi_2642
*394 ctmi_2251
*395 ctmi_2508
*396 ctmi_2254
*397 ctmi_2696
*398 ctmi_2635
*399 ctmi_2257
*400 ctmi_2263
*401 ctmi_2260
*402 ctmi_136
*403 ctmi_2496
*404 ctmi_2267
*405 ctmi_2629
*406 ctmi_2270
*407 ctmi_2275
*408 ctmi_2272
*409 ctmi_2485
*410 ctmi_2279
*411 ctmi_2622
*412 ctmi_2282
*413 ctmi_2287
*414 ctmi_2284
*415 phfnr_buf_352
*416 ctmi_2474
*417 ctmi_2291
*418 ctmi_2615
*419 ctmi_2294
*420 ctmi_2299
*421 ctmi_2297
*422 phfnr_buf_353
*423 ctmi_2463
*424 ctmi_2301
*425 ctmi_2608
*426 ctmi_2306
*427 ctmi_2311
*428 ctmi_2308
*429 ctmi_2312
*430 ctmi_2452
*431 ctmi_2313
*432 ctmi_2602
*433 ctmi_2318
*434 ctmi_2323
*435 ctmi_2320
*436 ctmi_138
*437 ctmi_2440
*438 ctmi_2327
*439 ctmi_2596
*440 ctmi_2330
*441 ctmi_2335
*442 ctmi_2332
*443 ctmi_139
*444 ctmi_2429
*445 ctmi_2339
*446 ctmi_2589
*447 ctmi_2342
*448 ctmi_2418
*449 ctmi_2348
*450 ctmi_2678
*451 ctmi_2350
*452 ctmi_2582
*453 ctmi_2353
*454 ctmi_2407
*455 ctmi_2357
*456 ctmi_2674
*457 ctmi_2576
*458 ctmi_2360
*459 ctmi_2395
*460 ctmi_2368
*461 ctmi_2670
*462 ctmi_2370
*463 ctmi_2570
*464 ctmi_2373
*465 ctmi_2396
*466 reg_data_reg[45]
*467 ctmi_2718
*468 ctmi_2714
*469 ctmi_2719
*470 ctmi_2720
*471 ctmi_2721
*472 ctmi_2722
*473 ctmi_2723
*474 ctmi_2724
*475 ctmi_2725
*476 ctmi_2408
*477 ctmi_2726
*478 ctmi_2727
*479 ctmi_2728
*480 ctmi_2729
*481 ctmi_2730
*482 ctmi_2731
*483 ctmi_2732
*484 ctmi_2733
*485 ctmi_2734
*486 ctmi_2735
*487 ctmi_2736
*488 ctmi_2737
*489 ctmi_2419
*490 ctmi_2738
*491 ctmi_2739
*492 ctmi_2740
*493 ctmi_2741
*494 ctmi_2742
*495 ctmi_2743
*496 ctmi_2744
*497 ctmi_2745
*498 ctmi_2746
*499 ctmi_2747
*500 ctmi_2748
*501 ctmi_2749
*502 ctmi_2430
*503 ctmi_2750
*504 ctmi_2751
*505 ctmi_2752
*506 ctmi_2753
*507 ctmi_2754
*508 ctmi_2755
*509 ctmi_2756
*510 ctmi_2757
*511 ctmi_2758
*512 ctmi_2759
*513 ctmi_2760
*514 ctmi_2761
*515 ctmi_2441
*516 ctmi_2762
*517 ctmi_2763
*518 ctmi_2764
*519 ctmi_2765
*520 ctmi_2766
*521 ctmi_2767
*522 ctmi_2768
*523 ctmi_2769
*524 ctmi_2770
*525 ctmi_2771
*526 ctmi_2772
*527 ctmi_2773
*528 ctmi_2453
*529 ctmi_2774
*530 ctmi_2775
*531 reg_data_reg[44]
*532 ctmi_2680
*533 place_optoptlc_3442
*534 place_optoptlc_3443
*535 place_optoptlc_3444
*536 ctmi_2683
*537 place_optoptlc_3445
*538 place_optoptlc_3446
*539 place_optoptlc_3447
*540 ctmi_2691
*541 ctmi_2698
*542 ctmi_2191
*543 ctmi_2194
*544 ctmi_2197
*545 ctmi_2189
*546 ctmi_2210
*547 ctmi_2222
*548 ctmi_2233
*549 ctmi_2252
*550 ctmi_2343
*551 ctmi_2355
*552 ctmi_2365
*553 phfnr_buf_354
*554 phfnr_buf_360
*555 ctmi_2566
*556 phfnr_buf_359
*557 ctmi_2192
*558 phfnr_buf_358
*559 ctmi_2195
*560 ctmi_2198
*561 ctmi_2199
*562 ctmi_2201
*563 ctmi_2206
*564 ctmi_2668
*565 ctmi_2555
*566 ctmi_2662
*567 ctmi_2544
*568 ctmi_2709
*569 ctmi_2656
*570 ctmi_2533
*571 ctmi_2704
*572 ctmi_2650
*573 ctmi_2246
*574 ctmi_2521
*575 ctmi_2644
*576 ctmi_2510
*577 ctmi_2699
*578 ctmi_2637
*579 ctmi_2265
*580 ctmi_2498
*581 ctmi_2631
*582 ctmi_2277
*583 ctmi_2487
*584 ctmi_2624
*585 ctmi_2289
*586 ctmi_2476
*587 ctmi_2617
*588 phfnr_buf_355
*589 ctmi_2465
*590 ctmi_2610
*591 ctmi_141
*592 ctmi_2454
*593 ctmi_2604
*594 ctmi_2325
*595 ctmi_2442
*596 ctmi_2598
*597 ctmi_2337
*598 ctmi_2431
*599 ctmi_2591
*600 ctmi_2420
*601 ctmi_2682
*602 ctmi_2584
*603 ctmi_2409
*604 ctmi_2676
*605 ctmi_2578
*606 ctmi_2397
*607 phfnr_buf_356
*608 phfnr_buf_357
*609 ctmi_2572
*610 ctmi_2684
*611 ctmi_2207
*612 ctmi_2211
*613 ctmi_2212
*614 phfnr_buf_361
*615 ctmi_2705
*616 ctmi_2692
*617 ctmi_2693
*618 phfnr_buf_362
*619 ctmi_2688
*620 ctmi_2690
*621 ctmi_2686
*622 ctmi_2625
*623 ctmi_2632
*624 phfnr_buf_363
*625 ctmi_2645
*626 ctmi_2599
*627 ctmi_2605
*628 ctmi_2611
*629 ctmi_2618
*630 ctmi_2592
*631 phfnr_buf_364
*632 ctmi_2216
*633 ctmi_2218
*634 ctmi_2219
*635 ctmi_2221
*636 ctmi_2223
*637 ctmi_2224
*638 ctmi_2226
*639 phfnr_buf_365
*640 ctmi_2229
*641 ctmi_2232
*642 ctmi_2234
*643 ctmi_2236
*644 ctmi_2239
*645 place_optHFSBUF_331_370
*646 ctmi_2247
*647 ctmi_2249
*648 ctmi_2253
*649 ctmi_2255
*650 ctmi_2256
*651 ctmi_2258
*652 place_optHFSBUF_409_371
*653 place_optHFSINV_427_373
*654 ctmi_2266
*655 ctmi_2268
*656 ctmi_2271
*657 place_optHFSINV_455_374
*658 ctmi_311
*659 ctmi_2278
*660 ctmi_2280
*661 ctmi_2283
*662 ctmi_2290
*663 ctmi_2292
*664 ctmi_313
*665 ctmi_2298
*666 ctmi_2303
*667 ctmi_2307
*668 place_optoptlc_3448
*669 place_optHFSBUF_337_376
*670 ctmi_2315
*671 ctmi_2316
*672 ctmi_2319
*673 ctmi_315
*674 ctmi_2326
*675 ctmi_2328
*676 ctmi_2331
*677 ctmi_316
*678 ctmi_2338
*679 ctmi_2340
*680 ctmi_2344
*681 ctmi_2345
*682 ctmi_2349
*683 ctmi_2351
*684 ctmi_2354
*685 ctmi_2356
*686 ctmi_2358
*687 ctmi_317
*688 ctmi_2366
*689 place_optHFSBUF_440_377
*690 ctmi_2371
*691 place_optHFSINV_268_378
*692 ctmi_2398
*693 ctmi_2399
*694 ctmi_2400
*695 ctmi_2579
*696 ctmi_2410
*697 ctmi_2411
*698 ctmi_2412
*699 ctmi_2421
*700 ctmi_2422
*701 ctmi_2423
*702 ctmi_2593
*703 ctmi_2432
*704 ctmi_2433
*705 ctmi_2434
*706 ctmi_2443
*707 ctmi_2444
*708 ctmi_2445
*709 place_optHFSINV_125_379
*710 ctmi_2455
*711 ctmi_2456
*712 ctmi_2457
*713 ctmi_2466
*714 ctmi_2467
*715 ctmi_2468
*716 ctmi_2619
*717 ctmi_2477
*718 ctmi_2478
*719 ctmi_2479
*720 ctmi_2488
*721 ctmi_2489
*722 ctmi_2490
*723 ctmi_2633
*724 ctmi_2499
*725 ctmi_2500
*726 ctmi_2501
*727 ctmi_2638
*728 ctmi_2511
*729 ctmi_2512
*730 ctmi_2513
*731 ctmi_2646
*732 ctmi_2522
*733 ctmi_2523
*734 ctmi_2524
*735 ctmi_2651
*736 ctmi_2534
*737 ctmi_2535
*738 ctmi_2536
*739 ctmi_2657
*740 ctmi_2545
*741 ctmi_2546
*742 ctmi_2547
*743 ctmi_2663
*744 ctmi_2556
*745 ctmi_2557
*746 ctmi_2558
*747 ctmi_2567
*748 ctmi_2568
*749 ctmi_2573
*750 ctmi_2574
*751 ctmi_2580
*752 ctmi_2585
*753 ctmi_2586
*754 ctmi_2587
*755 ctmi_2594
*756 place_optHFSINV_328_380
*757 place_optHFSBUF_3389_382
*758 ctmi_2612
*759 ctmi_2613
*760 ctmi_2620
*761 ctmi_2626
*762 ctmi_2627
*763 ctmi_2639
*764 ctmi_2640
*765 ctmi_2652
*766 ctmi_2658
*767 ctmi_2664
*768 ctmi_2375
*769 ctmi_2230
*770 ctmi_2237
*771 ctmi_2240
*772 ctmi_2401
*773 ctmi_2413
*774 ctmi_2424
*775 ctmi_2435
*776 ctmi_2446
*777 ctmi_2458
*778 ctmi_2469
*779 ctmi_2480
*780 ctmi_2491
*781 ctmi_2502
*782 ctmi_2514
*783 ctmi_2525
*784 ctmi_2537
*785 ctmi_2548
*786 ctmi_2559
*787 place_optHFSINV_5092_383
*788 ctmi_2259
*789 place_optHFSBUF_3481_384
*790 place_optHFSINV_3632_385
*791 place_optHFSINV_8490_386
*792 place_optHFSBUF_8436_387
*793 place_optctmTdsLR_1_240
*794 place_optctmTdsLR_1_241
*795 place_optcopt_gre_mt_inst_3453
*796 ctmi_2352
*797 ctmi_2359
*798 xofiller!DCAP16HPBWP!x106000y120000
*799 xofiller!DCAP16HPBWP!x138000y120000
*800 xofiller!DCAP16HPBWP!x170000y120000
*801 ctmi_2372
*802 xofiller!DCAP16HPBWP!x202000y120000
*803 xofiller!DCAP4HPBWP!x234000y120000
*804 ctmi_2377
*805 ctmi_2378
*806 xofiller!DCAP4HPBWP!x242000y120000
*807 xofiller!DCAP16HPBWP!x254000y120000
*808 xofiller!DCAP16HPBWP!x286000y120000
*809 xofiller!DCAP16HPBWP!x318000y120000
*810 xofiller!DCAP16HPBWP!x420000y120000
*811 xofiller!DCAP16HPBWP!x452000y120000
*812 clock_optZCTSBUF_5451_3022
*813 clock_optZCTSBUF_4259_3023
*814 ctmi_2384
*815 clock_optZCTSBUF_2618_3024
*816 place_optctmTdsLR_1_3407
*817 ctmi_2387
*818 ctmi_2388
*819 ctmi_2389
*820 ctmi_2390
*821 ctmi_2391
*822 ctmi_2392
*823 place_optctmTdsLR_2_3408
*824 ctmi_2402
*825 ctmi_2403
*826 place_optctmTdsLR_1_3409
*827 place_optctmTdsLR_2_3410
*828 ctmi_2414
*829 ctmi_2415
*830 ctmi_2416
*831 ctmi_2425
*832 ctmi_2426
*833 place_optctmTdsLR_1_3411
*834 ctmi_2436
*835 ctmi_2437
*836 ctmi_2447
*837 ctmi_2448
*838 ctmi_2449
*839 ctmi_2450
*840 ctmi_2459
*841 ctmi_2460
*842 ctmi_2461
*843 ctmi_2470
*844 ctmi_2471
*845 place_optctmTdsLR_2_3412
*846 ctmi_2481
*847 ctmi_2482
*848 place_optctmTdsLR_1_3413
*849 ctmi_2492
*850 ctmi_2493
*851 place_optctmTdsLR_2_3414
*852 ctmi_2503
*853 ctmi_2504
*854 place_optoptlc_3449
*855 place_optoptlc_3450
*856 ctmi_2515
*857 ctmi_2516
*858 place_optoptlc_3451
*859 xofiller!DCAP16HPBWP!x484000y120000
*860 ctmi_2526
*861 ctmi_2527
*862 xofiller!DCAP16HPBWP!x516000y120000
*863 xofiller!DCAP16HPBWP!x554000y120000
*864 xofiller!DCAP16HPBWP!x586000y120000
*865 xofiller!DCAP16HPBWP!x618000y120000
*866 xofiller!DCAP16HPBWP!x650000y120000
*867 ctmi_2538
*868 ctmi_2539
*869 ctmi_2540
*870 ctmi_2549
*871 ctmi_2550
*872 ctmi_2551
*873 ctmi_2560
*874 ctmi_2561
*875 ctmi_2562
*876 ctmi_2013
*877 ctmi_2014
*878 ctmi_2015
*879 xofiller!DCAP16HPBWP!x682000y120000
*880 xofiller!DCAP16HPBWP!x714000y120000
*881 xofiller!DCAP16HPBWP!x746000y120000
*882 ctmi_2018
*883 xofiller!DCAP16HPBWP!x778000y120000
*884 xofiller!DCAP16HPBWP!x810000y120000
*885 xofiller!DCAP4HPBWP!x842000y120000
*886 ctmi_143
*887 xofiller!DCAP16HPBWP!x854000y120000
*888 xofiller!DCAP16HPBWP!x886000y120000
*889 ctmi_2022
*890 xofiller!DCAP16HPBWP!x918000y120000
*891 xofiller!DCAP16HPBWP!x950000y120000
*892 xofiller!DCAP4HPBWP!x982000y120000
*893 xofiller!DCAP4HPBWP!x990000y120000
*894 xofiller!DCAP4HPBWP!x1004000y120000
*895 ctmi_2025
*896 xofiller!DCAP4HPBWP!x1012000y120000
*897 ctmi_145
*898 xofiller!DCAP16HPBWP!x1066000y120000
*899 xofiller!DCAP4HPBWP!x1098000y120000
*900 xofiller!DCAP4HPBWP!x1106000y120000
*901 xofiller!DCAP4HPBWP!x1114000y120000
*902 xofiller!DCAP16HPBWP!x106000y140000
*903 xofiller!DCAP16HPBWP!x138000y140000
*904 xofiller!DCAP16HPBWP!x170000y140000
*905 xofiller!DCAP16HPBWP!x202000y140000
*906 ctmi_2033
*907 xofiller!DCAP4HPBWP!x234000y140000
*908 xofiller!DCAP4HPBWP!x242000y140000
*909 xofiller!DCAP16HPBWP!x254000y140000
*910 ctmi_146
*911 ctmi_2036
*912 ctmi_147
*913 xofiller!DCAP16HPBWP!x286000y140000
*914 xofiller!DCAP16HPBWP!x318000y140000
*915 ctmi_2040
*916 ctmi_2041
*917 ctmi_2042
*918 ctmi_2043
*919 ctmi_148
*920 xofiller!DCAP4HPBWP!x350000y140000
*921 xofiller!DCAPHPBWP!x358000y140000
*922 ctmi_2046
*923 ctmi_150
*924 ctmi_151
*925 ctmi_2049
*926 ctmi_2050
*927 xofiller!DCAP16HPBWP!x454000y140000
*928 ctmi_2053
*929 ctmi_152
*930 xofiller!DCAP16HPBWP!x486000y140000
*931 xofiller!DCAP4HPBWP!x518000y140000
*932 ctmi_2057
*933 ctmi_2058
*934 xofiller!DCAP4HPBWP!x542000y140000
*935 xofiller!DCAP4HPBWP!x572000y140000
*936 xofiller!DCAP4HPBWP!x580000y140000
*937 xofiller!DCAP16HPBWP!x626000y140000
*938 ctmi_154
*939 ctmi_2061
*940 ctmi_155
*941 xofiller!DCAP16HPBWP!x658000y140000
*942 xofiller!DCAP16HPBWP!x690000y140000
*943 ctmi_2065
*944 ctmi_2066
*945 xofiller!DCAP16HPBWP!x722000y140000
*946 xofiller!DCAP16HPBWP!x754000y140000
*947 xofiller!DCAP16HPBWP!x786000y140000
*948 ctmi_156
*949 ctmi_2069
*950 ctmi_157
*951 xofiller!DCAP4HPBWP!x818000y140000
*952 ctmi_2073
*953 ctmi_2074
*954 ctmi_2075
*955 ctmi_2076
*956 xofiller!DCAP16HPBWP!x910000y140000
*957 xofiller!DCAP16HPBWP!x942000y140000
*958 ctmi_159
*959 xofiller!DCAP4HPBWP!x974000y140000
*960 xofiller!DCAP4HPBWP!x982000y140000
*961 xofiller!DCAP4HPBWP!x990000y140000
*962 ctmi_160
*963 xofiller!DCAP4HPBWP!x1004000y140000
*964 xofiller!DCAP4HPBWP!x1012000y140000
*965 ctmi_2082
*966 ctmi_2083
*967 ctmi_2084
*968 ctmi_161
*969 xofiller!DCAP4HPBWP!x1096000y140000
*970 xofiller!DCAP4HPBWP!x1104000y140000
*971 ctmi_2088
*972 ctmi_163
*973 ctmi_164
*974 ctmi_165
*975 ctmi_2092
*976 ctmi_166
*977 xofiller!DCAP4HPBWP!x1112000y140000
*978 xofiller!DCAP16HPBWP!x106000y160000
*979 ctmi_2096
*980 xofiller!DCAP16HPBWP!x138000y160000
*981 xofiller!DCAP16HPBWP!x170000y160000
*982 xofiller!DCAP16HPBWP!x202000y160000
*983 xofiller!DCAP16HPBWP!x234000y160000
*984 xofiller!DCAP16HPBWP!x266000y160000
*985 xofiller!DCAP4HPBWP!x298000y160000
*986 ctmi_2100
*987 ctmi_2101
*988 ctmi_2102
*989 xofiller!DCAP4HPBWP!x306000y160000
*990 ctmi_2104
*991 xofiller!DCAP4HPBWP!x342000y160000
*992 xofiller!DCAP4HPBWP!x368000y160000
*993 xofiller!DCAP4HPBWP!x394000y160000
*994 xofiller!DCAP4HPBWP!x402000y160000
*995 ctmi_2107
*996 xofiller!DCAP4HPBWP!x500000y160000
*997 xofiller!DCAPHPBWP!x508000y160000
*998 ctmi_2111
*999 xofiller!DCAP16HPBWP!x678000y160000
*1000 xofiller!DCAP16HPBWP!x710000y160000
*1001 ctmi_2113
*1002 xofiller!DCAP16HPBWP!x742000y160000
*1003 xofiller!DCAP4HPBWP!x774000y160000
*1004 ctmi_2115
*1005 xofiller!DCAPHPBWP!x868000y160000
*1006 ctmi_2119
*1007 xofiller!DCAP4HPBWP!x986000y160000
*1008 ctmi_2121
*1009 ctmi_2122
*1010 ctmi_2123
*1011 xofiller!DCAPHPBWP!x994000y160000
*1012 xofiller!DCAP4HPBWP!x1030000y160000
*1013 ctmi_2125
*1014 ctmi_2126
*1015 ctmi_2128
*1016 xofiller!DCAP16HPBWP!x106000y180000
*1017 xofiller!DCAP16HPBWP!x138000y180000
*1018 xofiller!DCAP16HPBWP!x170000y180000
*1019 xofiller!DCAP16HPBWP!x202000y180000
*1020 ctmi_2131
*1021 xofiller!DCAP4HPBWP!x234000y180000
*1022 xofiller!DCAP4HPBWP!x242000y180000
*1023 ctmi_2133
*1024 ctmi_2134
*1025 xofiller!DCAP16HPBWP!x254000y180000
*1026 xofiller!DCAP16HPBWP!x286000y180000
*1027 ctmi_2136
*1028 xofiller!DCAP4HPBWP!x318000y180000
*1029 ctmi_2138
*1030 ctmi_2139
*1031 xofiller!DCAPHPBWP!x388000y180000
*1032 xofiller!DCAP4HPBWP!x432000y180000
*1033 ctmi_2141
*1034 xofiller!DCAP4HPBWP!x440000y180000
*1035 xofiller!DCAPHPBWP!x448000y180000
*1036 xofiller!DCAP4HPBWP!x524000y180000
*1037 xofiller!DCAP4HPBWP!x532000y180000
*1038 ctmi_2144
*1039 xofiller!DCAP16HPBWP!x558000y180000
*1040 xofiller!DCAP4HPBWP!x590000y180000
*1041 xofiller!DCAP4HPBWP!x612000y180000
*1042 xofiller!DCAPHPBWP!x620000y180000
*1043 ctmi_2148
*1044 ctmi_2149
*1045 ctmi_2150
*1046 xofiller!DCAPHPBWP!x818000y180000
*1047 ctmi_2152
*1048 ctmi_2153
*1049 xofiller!DCAP4HPBWP!x854000y180000
*1050 xofiller!DCAP4HPBWP!x862000y180000
*1051 ctmi_2155
*1052 ctmi_2156
*1053 xofiller!DCAP4HPBWP!x870000y180000
*1054 xofiller!DCAPHPBWP!x878000y180000
*1055 ctmi_2158
*1056 ctmi_2159
*1057 ctmi_2160
*1058 ctmi_2161
*1059 ctmi_2162
*1060 ctmi_2163
*1061 ctmi_2164
*1062 xofiller!DCAP4HPBWP!x1080000y180000
*1063 xofiller!DCAP4HPBWP!x1088000y180000
*1064 ctmi_2166
*1065 ctmi_2167
*1066 xofiller!DCAP4HPBWP!x1096000y180000
*1067 ctmi_2169
*1068 ctmi_2170
*1069 xofiller!DCAP16HPBWP!x106000y200000
*1070 xofiller!DCAP16HPBWP!x138000y200000
*1071 ctmi_2172
*1072 ctmi_2173
*1073 xofiller!DCAP16HPBWP!x170000y200000
*1074 xofiller!DCAP16HPBWP!x202000y200000
*1075 ctmi_2175
*1076 ctmi_2176
*1077 xofiller!DCAP16HPBWP!x234000y200000
*1078 xofiller!DCAP4HPBWP!x266000y200000
*1079 ctmi_2178
*1080 xofiller!DCAP4HPBWP!x412000y200000
*1081 ctmi_2180
*1082 xofiller!DCAP4HPBWP!x492000y200000
*1083 xofiller!DCAPHPBWP!x500000y200000
*1084 ctmi_2182
*1085 ctmi_2183
*1086 xofiller!DCAP4HPBWP!x542000y200000
*1087 xofiller!DCAP16HPBWP!x642000y200000
*1088 ctmi_2185
*1089 ctmi_2186
*1090 ctmi_2187
*1091 p3_reg[15]
*1092 xofiller!DCAP16HPBWP!x674000y200000
*1093 xofiller!DCAP4HPBWP!x706000y200000
*1094 xofiller!DCAP4HPBWP!x800000y200000
*1095 xofiller!DCAP4HPBWP!x830000y200000
*1096 xofiller!DCAP4HPBWP!x1004000y200000
*1097 xofiller!DCAPHPBWP!x1078000y200000
*1098 xofiller!DCAP16HPBWP!x106000y220000
*1099 xofiller!DCAP16HPBWP!x138000y220000
*1100 xofiller!DCAP16HPBWP!x170000y220000
*1101 xofiller!DCAP16HPBWP!x202000y220000
*1102 xofiller!DCAP4HPBWP!x234000y220000
*1103 xofiller!DCAP4HPBWP!x242000y220000
*1104 xofiller!DCAP4HPBWP!x254000y220000
*1105 xofiller!DCAP4HPBWP!x262000y220000
*1106 xofiller!DCAP4HPBWP!x270000y220000
*1107 xofiller!DCAP4HPBWP!x344000y220000
*1108 xofiller!DCAP4HPBWP!x352000y220000
*1109 xofiller!DCAPHPBWP!x360000y220000
*1110 xofiller!DCAP4HPBWP!x464000y220000
*1111 xofiller!DCAP4HPBWP!x638000y220000
*1112 xofiller!DCAP16HPBWP!x710000y220000
*1113 xofiller!DCAP4HPBWP!x742000y220000
*1114 xofiller!DCAP4HPBWP!x750000y220000
*1115 xofiller!DCAP4HPBWP!x758000y220000
*1116 xofiller!DCAP4HPBWP!x900000y220000
*1117 xofiller!DCAP16HPBWP!x916000y220000
*1118 xofiller!DCAP4HPBWP!x948000y220000
*1119 xofiller!DCAP4HPBWP!x1020000y220000
*1120 xofiller!DCAP4HPBWP!x1096000y220000
*1121 xofiller!DCAP16HPBWP!x106000y240000
*1122 xofiller!DCAP16HPBWP!x138000y240000
*1123 xofiller!DCAP16HPBWP!x170000y240000
*1124 xofiller!DCAP16HPBWP!x202000y240000
*1125 xofiller!DCAP16HPBWP!x234000y240000
*1126 xofiller!DCAP4HPBWP!x538000y240000
*1127 xofiller!DCAP4HPBWP!x620000y240000
*1128 xofiller!DCAP4HPBWP!x628000y240000
*1129 xofiller!DCAP4HPBWP!x806000y240000
*1130 xofiller!DCAPHPBWP!x814000y240000
*1131 xofiller!DCAP4HPBWP!x972000y240000
*1132 xofiller!DCAP4HPBWP!x980000y240000
*1133 xofiller!DCAP4HPBWP!x988000y240000
*1134 xofiller!DCAPHPBWP!x1004000y240000
*1135 xofiller!DCAP4HPBWP!x1110000y240000
*1136 xofiller!DCAP16HPBWP!x106000y260000
*1137 xofiller!DCAP16HPBWP!x138000y260000
*1138 xofiller!DCAP16HPBWP!x170000y260000
*1139 xofiller!DCAP16HPBWP!x202000y260000
*1140 xofiller!DCAP4HPBWP!x234000y260000
*1141 xofiller!DCAP4HPBWP!x242000y260000
*1142 xofiller!DCAP4HPBWP!x254000y260000
*1143 xofiller!DCAP4HPBWP!x262000y260000
*1144 clock_gate_reg_data_reg
*1145 xofiller!DCAP4HPBWP!x336000y260000
*1146 xofiller!DCAP16HPBWP!x410000y260000
*1147 xofiller!DCAP4HPBWP!x442000y260000
*1148 xofiller!DCAP4HPBWP!x480000y260000
*1149 xofiller!DCAP4HPBWP!x686000y260000
*1150 xofiller!DCAP4HPBWP!x694000y260000
*1151 xofiller!DCAP4HPBWP!x702000y260000
*1152 xofiller!DCAP4HPBWP!x854000y260000
*1153 xofiller!DCAP4HPBWP!x862000y260000
*1154 xofiller!DCAP4HPBWP!x932000y260000
*1155 xofiller!DCAP4HPBWP!x964000y260000
*1156 xofiller!DCAP4HPBWP!x1006000y260000
*1157 xofiller!DCAP4HPBWP!x1014000y260000
*1158 xofiller!DCAP4HPBWP!x1022000y260000
*1159 xofiller!DCAP4HPBWP!x1098000y260000
*1160 xofiller!DCAP16HPBWP!x106000y280000
*1161 xofiller!DCAP16HPBWP!x138000y280000
*1162 xofiller!DCAP16HPBWP!x170000y280000
*1163 xofiller!DCAP16HPBWP!x202000y280000
*1164 xofiller!DCAP16HPBWP!x234000y280000
*1165 xofiller!DCAP16HPBWP!x266000y280000
*1166 xofiller!DCAPHPBWP!x344000y280000
*1167 xofiller!DCAPHPBWP!x520000y280000
*1168 xofiller!DCAP4HPBWP!x542000y280000
*1169 xofiller!DCAPHPBWP!x554000y280000
*1170 xofiller!DCAP16HPBWP!x632000y280000
*1171 xofiller!DCAP16HPBWP!x664000y280000
*1172 xofiller!DCAP4HPBWP!x696000y280000
*1173 xofiller!DCAP4HPBWP!x830000y280000
*1174 xofiller!DCAP4HPBWP!x974000y280000
*1175 xofiller!DCAP4HPBWP!x1028000y280000
*1176 xofiller!DCAP4HPBWP!x1070000y280000
*1177 xofiller!DCAP4HPBWP!x1096000y280000
*1178 xofiller!DCAP16HPBWP!x106000y300000
*1179 xofiller!DCAP16HPBWP!x138000y300000
*1180 xofiller!DCAP16HPBWP!x170000y300000
*1181 xofiller!DCAP16HPBWP!x202000y300000
*1182 xofiller!DCAP4HPBWP!x234000y300000
*1183 xofiller!DCAP4HPBWP!x242000y300000
*1184 xofiller!DCAP4HPBWP!x254000y300000
*1185 xofiller!DCAP4HPBWP!x262000y300000
*1186 xofiller!DCAP4HPBWP!x270000y300000
*1187 xofiller!DCAP4HPBWP!x340000y300000
*1188 xofiller!DCAP4HPBWP!x348000y300000
*1189 xofiller!DCAPHPBWP!x558000y300000
*1190 xofiller!DCAP4HPBWP!x612000y300000
*1191 xofiller!DCAP4HPBWP!x620000y300000
*1192 xofiller!DCAP4HPBWP!x628000y300000
*1193 xofiller!DCAP4HPBWP!x812000y300000
*1194 xofiller!DCAP4HPBWP!x820000y300000
*1195 xofiller!DCAP4HPBWP!x842000y300000
*1196 xofiller!DCAP4HPBWP!x920000y300000
*1197 xofiller!DCAP4HPBWP!x928000y300000
*1198 xofiller!DCAP4HPBWP!x1094000y300000
*1199 xofiller!DCAP16HPBWP!x106000y320000
*1200 xofiller!DCAP16HPBWP!x138000y320000
*1201 xofiller!DCAP16HPBWP!x170000y320000
*1202 xofiller!DCAP16HPBWP!x202000y320000
*1203 xofiller!DCAP16HPBWP!x234000y320000
*1204 xofiller!DCAP4HPBWP!x266000y320000
*1205 xofiller!DCAP4HPBWP!x360000y320000
*1206 xofiller!DCAP4HPBWP!x368000y320000
*1207 xofiller!DCAPHPBWP!x460000y320000
*1208 xofiller!DCAP4HPBWP!x554000y320000
*1209 xofiller!DCAPHPBWP!x916000y320000
*1210 xofiller!DCAP4HPBWP!x990000y320000
*1211 xofiller!DCAP4HPBWP!x1104000y320000
*1212 xofiller!DCAP4HPBWP!x1112000y320000
*1213 xofiller!DCAP16HPBWP!x106000y340000
*1214 xofiller!DCAP16HPBWP!x138000y340000
*1215 xofiller!DCAP16HPBWP!x170000y340000
*1216 xofiller!DCAP16HPBWP!x202000y340000
*1217 xofiller!DCAP4HPBWP!x234000y340000
*1218 xofiller!DCAP4HPBWP!x242000y340000
*1219 xofiller!DCAP16HPBWP!x254000y340000
*1220 xofiller!DCAP4HPBWP!x286000y340000
*1221 xofiller!DCAP4HPBWP!x294000y340000
*1222 xofiller!DCAP4HPBWP!x526000y340000
*1223 xofiller!DCAP4HPBWP!x618000y340000
*1224 xofiller!DCAP4HPBWP!x626000y340000
*1225 xofiller!DCAPHPBWP!x634000y340000
*1226 xofiller!DCAP4HPBWP!x704000y340000
*1227 xofiller!DCAP16HPBWP!x764000y340000
*1228 xofiller!DCAP4HPBWP!x854000y340000
*1229 xofiller!DCAP4HPBWP!x862000y340000
*1230 xofiller!DCAP4HPBWP!x870000y340000
*1231 xofiller!DCAP4HPBWP!x938000y340000
*1232 xofiller!DCAP4HPBWP!x946000y340000
*1233 xofiller!DCAP16HPBWP!x106000y360000
*1234 xofiller!DCAP16HPBWP!x138000y360000
*1235 xofiller!DCAP16HPBWP!x170000y360000
*1236 xofiller!DCAP16HPBWP!x202000y360000
*1237 xofiller!DCAP16HPBWP!x234000y360000
*1238 xofiller!DCAP4HPBWP!x266000y360000
*1239 xofiller!DCAP4HPBWP!x478000y360000
*1240 xofiller!DCAP4HPBWP!x538000y360000
*1241 xofiller!DCAP4HPBWP!x604000y360000
*1242 xofiller!DCAP16HPBWP!x874000y360000
*1243 xofiller!DCAP4HPBWP!x906000y360000
*1244 xofiller!DCAP4HPBWP!x978000y360000
*1245 xofiller!DCAP4HPBWP!x1004000y360000
*1246 xofiller!DCAPHPBWP!x1032000y360000
*1247 xofiller!DCAP16HPBWP!x106000y380000
*1248 xofiller!DCAP16HPBWP!x138000y380000
*1249 xofiller!DCAP16HPBWP!x170000y380000
*1250 xofiller!DCAP16HPBWP!x202000y380000
*1251 xofiller!DCAP4HPBWP!x234000y380000
*1252 xofiller!DCAP4HPBWP!x242000y380000
*1253 xofiller!DCAP16HPBWP!x254000y380000
*1254 xofiller!DCAP4HPBWP!x466000y380000
*1255 xofiller!DCAPHPBWP!x474000y380000
*1256 xofiller!DCAP4HPBWP!x584000y380000
*1257 xofiller!DCAP4HPBWP!x592000y380000
*1258 xofiller!DCAP4HPBWP!x686000y380000
*1259 xofiller!DCAP4HPBWP!x854000y380000
*1260 xofiller!DCAP4HPBWP!x1024000y380000
*1261 xofiller!DCAP4HPBWP!x1054000y380000
*1262 xofiller!DCAP16HPBWP!x106000y400000
*1263 xofiller!DCAP16HPBWP!x138000y400000
*1264 xofiller!DCAP16HPBWP!x170000y400000
*1265 xofiller!DCAP16HPBWP!x202000y400000
*1266 xofiller!DCAP4HPBWP!x234000y400000
*1267 xofiller!DCAP4HPBWP!x302000y400000
*1268 xofiller!DCAP4HPBWP!x310000y400000
*1269 xofiller!DCAP4HPBWP!x324000y400000
*1270 xofiller!DCAP16HPBWP!x390000y400000
*1271 xofiller!DCAP16HPBWP!x422000y400000
*1272 xofiller!DCAPHPBWP!x544000y400000
*1273 xofiller!DCAP16HPBWP!x804000y400000
*1274 xofiller!DCAP4HPBWP!x836000y400000
*1275 xofiller!DCAPHPBWP!x894000y400000
*1276 xofiller!DCAP4HPBWP!x958000y400000
*1277 xofiller!DCAP4HPBWP!x986000y400000
*1278 xofiller!DCAPHPBWP!x994000y400000
*1279 xofiller!DCAP4HPBWP!x1098000y400000
*1280 xofiller!DCAP16HPBWP!x106000y420000
*1281 xofiller!DCAP16HPBWP!x138000y420000
*1282 xofiller!DCAP16HPBWP!x170000y420000
*1283 xofiller!DCAP16HPBWP!x202000y420000
*1284 xofiller!DCAP4HPBWP!x234000y420000