*SPEF "1481-1998"
*DESIGN "top"
*DATE "Sun May 25 02:39:34 2025"
*VENDOR "Synopsys, Inc."
*PROGRAM "fc /mnt/vol_synopsys2023/synopsys/fusioncompiler/U-2022.12-SP6/linux64/nwtn/bin/dgcom_exec"
*VERSION "U-2022.12-SP6 Aug 25, 2023"
*DESIGN_FLOW "ICC2 SPEF DR"
*DIVIDER /
*DELIMITER :
*BUS_DELIMITER [ ]
*T_UNIT 1 NS
*C_UNIT 1 PF
*R_UNIT 1 KOHM
*L_UNIT 1 HENRY

// XY_UNIT 1 UM
// PARASITIC_TECH RC_Worst at 125.000 degree

*NAME_MAP
*1 clk
*2 rst
*3 enable
*4 load
*5 serial_in
*6 mode[1]
*7 mode[0]
*8 parallel_in[3]
*9 parallel_in[2]
*10 parallel_in[1]
*11 parallel_in[0]
*12 serial_out
*13 parallel_out[3]
*14 parallel_out[2]
*15 parallel_out[1]
*16 parallel_out[0]
*17 VDD
*18 VSS
*19 ctmi_205
*20 ctmi_154
*21 ctmi_155
*22 ctmi_156
*23 p2_reg[0]
*24 ctmi_210
*25 reg_data_reg[0]
*26 ctmi_7
*27 phfnr_buf_54
*28 ctmi_206
*29 reg_data_reg[1]
*30 ctmi_207
*31 ctmi_208
*32 ctmi_209
*33 ctmi_9
*34 phfnr_buf_50
*35 phfnr_buf_51
*36 p3_reg[0]
*37 ctmi_204
*38 reg_data_reg[2]
*39 ctmi_193
*40 p1_reg[0]
*41 ctmi_200
*42 ctmi_162
*43 ctmi_167
*44 ctmi_176
*45 ctmi_177
*46 ctmi_179
*47 phfnr_buf_47
*48 ctmi_194
*49 ctmi_195
*50 ctmi_202
*51 ctmi_180
*52 ctmi_181
*53 ctmi_203
*54 ctmi_196
*55 phfnr_buf_52
*56 phfnr_buf_46
*57 ctmi_168
*58 ctmi_198
*59 ctmi_164
*60 phfnr_buf_48
*61 phfnr_buf_49
*62 ctmi_182
*63 phfnr_buf_53
*64 ctmi_152
*65 place_optoptlc_2706
*66 ctmi_158
*67 ctmi_159
*68 ctmi_161
*69 place_optctmTdsLR_1_30
*70 ctmi_169
*71 ctmi_172
*72 ctmi_173
*73 ctmi_174
*74 ctmi_175
*75 xofiller!DCAP4HPBWP!x200000y120000
*76 ctmi_184
*77 ctmi_185
*78 ctmi_187
*79 ctmi_188
*80 xofiller!DCAP4HPBWP!x308000y120000
*81 ctmi_190
*82 ctmi_191
*83 ctmi_192
*84 xofiller!DCAP16HPBWP!x106000y140000
*85 xofiller!DCAP4HPBWP!x138000y140000
*86 reg_data_reg[3]
*87 xofiller!DCAPHPBWP!x218000y140000
*88 xofiller!DCAP4HPBWP!x282000y140000
*89 xofiller!DCAP4HPBWP!x106000y180000
*90 xofiller!DCAP4HPBWP!x114000y180000
*91 xofiller!DCAP4HPBWP!x148000y180000
*92 xofiller!DCAP16HPBWP!x314000y200000
*93 xofiller!DCAP4HPBWP!x346000y200000
*94 xofiller!DCAP4HPBWP!x354000y200000
*95 xofiller!DCAP4HPBWP!x114000y220000
*96 xofiller!DCAP4HPBWP!x150000y220000
*97 xofiller!DCAP4HPBWP!x242000y220000
*98 xofiller!DCAPHPBWP!x250000y220000
*99 xofiller!DCAP4HPBWP!x106000y240000
*100 xofiller!DCAP4HPBWP!x196000y240000
*101 xofiller!DCAP4HPBWP!x344000y240000
*102 xofiller!DCAP4HPBWP!x352000y240000
*103 clock_gate_reg_data_reg
*104 xofiller!FILL1HPBWP!x106000y120000
*105 xofiller!FILL1HPBWP!x108000y120000
*106 xofiller!FILL1HPBWP!x126000y120000
*107 xofiller!FILL1HPBWP!x146000y120000
*108 xofiller!FILL1HPBWP!x148000y120000
*109 xofiller!FILL1HPBWP!x190000y120000
*110 xofiller!FILL1HPBWP!x208000y120000
*111 xofiller!FILL1HPBWP!x234000y120000
*112 xofiller!FILL1HPBWP!x236000y120000
*113 xofiller!FILL1HPBWP!x254000y120000
*114 xofiller!FILL1HPBWP!x256000y120000
*115 xofiller!FILL1HPBWP!x316000y120000
*116 xofiller!FILL1HPBWP!x146000y140000
*117 xofiller!FILL1HPBWP!x242000y140000
*118 xofiller!FILL1HPBWP!x256000y140000
*119 xofiller!FILL1HPBWP!x258000y140000
*120 xofiller!FILL1HPBWP!x330000y140000
*121 xofiller!FILL1HPBWP!x332000y140000
*122 xofiller!FILL1HPBWP!x346000y140000
*123 xofiller!FILL1HPBWP!x348000y140000
*124 xofiller!FILL1HPBWP!x362000y140000
*125 xofiller!FILL1HPBWP!x164000y160000
*126 xofiller!FILL1HPBWP!x166000y160000
*127 xofiller!FILL1HPBWP!x186000y160000
*128 xofiller!FILL1HPBWP!x204000y160000
*129 xofiller!FILL1HPBWP!x206000y160000
*130 xofiller!FILL1HPBWP!x234000y160000
*131 xofiller!FILL1HPBWP!x254000y160000
*132 xofiller!FILL1HPBWP!x256000y160000
*133 xofiller!FILL1HPBWP!x310000y160000
*134 xofiller!FILL1HPBWP!x360000y160000
*135 xofiller!FILL1HPBWP!x362000y160000
*136 xofiller!FILL1HPBWP!x130000y180000
*137 xofiller!FILL1HPBWP!x156000y180000
*138 xofiller!FILL1HPBWP!x210000y180000
*139 xofiller!FILL1HPBWP!x212000y180000
*140 xofiller!FILL1HPBWP!x250000y180000
*141 xofiller!FILL1HPBWP!x252000y180000
*142 xofiller!FILL1HPBWP!x176000y200000
*143 xofiller!FILL1HPBWP!x178000y200000
*144 xofiller!FILL1HPBWP!x272000y200000
*145 xofiller!FILL1HPBWP!x362000y200000
*146 xofiller!FILL1HPBWP!x106000y220000
*147 xofiller!FILL1HPBWP!x158000y220000
*148 xofiller!FILL1HPBWP!x160000y220000
*149 xofiller!FILL1HPBWP!x180000y220000
*150 xofiller!FILL1HPBWP!x182000y220000
*151 xofiller!FILL1HPBWP!x270000y220000
*152 xofiller!FILL1HPBWP!x304000y220000
*153 xofiller!FILL1HPBWP!x114000y240000
*154 xofiller!FILL1HPBWP!x116000y240000
*155 xofiller!FILL1HPBWP!x188000y240000
*156 xofiller!FILL1HPBWP!x360000y240000
*157 xofiller!FILL1HPBWP!x362000y240000
*158 tapfiller!TAPCELLHPBWP!0
*159 tapfiller!TAPCELLHPBWP!1
*160 tapfiller!TAPCELLHPBWP!2
*161 tapfiller!TAPCELLHPBWP!3
*162 boundarycell!DCAPHPBWP!0
*163 boundarycell!DCAPHPBWP!1
*164 boundarycell!DCAPHPBWP!2
*165 boundarycell!DCAPHPBWP!3
*166 boundarycell!DCAPHPBWP!4
*167 boundarycell!DCAPHPBWP!5
*168 boundarycell!DCAPHPBWP!6
*169 boundarycell!DCAPHPBWP!7
*170 boundarycell!DCAPHPBWP!8
*171 boundarycell!DCAPHPBWP!9
*172 boundarycell!DCAPHPBWP!10
*173 boundarycell!DCAPHPBWP!11
*174 boundarycell!DCAPHPBWP!12
*175 boundarycell!DCAPHPBWP!13
*176 boundarycell!DCAPHPBWP!14
*177 boundarycell!DCAPHPBWP!15
*178 boundarycell!DCAPHPBWP!16
*179 boundarycell!DCAPHPBWP!17
*180 boundarycell!DCAPHPBWP!18
*181 boundarycell!DCAPHPBWP!19
*182 boundarycell!DCAPHPBWP!20
*183 boundarycell!DCAPHPBWP!21
*184 boundarycell!DCAPHPBWP!22
*185 boundarycell!DCAPHPBWP!23
*186 boundarycell!DCAPHPBWP!24
*187 boundarycell!DCAPHPBWP!25
*188 boundarycell!DCAPHPBWP!26
*189 boundarycell!DCAPHPBWP!27
*190 boundarycell!DCAPHPBWP!28
*191 boundarycell!DCAPHPBWP!29
*192 boundarycell!DCAPHPBWP!30
*193 boundarycell!DCAPHPBWP!31
*194 boundarycell!DCAPHPBWP!32
*195 boundarycell!DCAPHPBWP!33
*196 boundarycell!DCAPHPBWP!34
*197 boundarycell!DCAPHPBWP!35
*198 boundarycell!DCAPHPBWP!36
*199 boundarycell!DCAPHPBWP!37
*200 boundarycell!DCAPHPBWP!38
*201 boundarycell!DCAPHPBWP!39
*202 boundarycell!DCAPHPBWP!40
*203 boundarycell!DCAPHPBWP!41
*204 boundarycell!DCAPHPBWP!42
*205 boundarycell!DCAPHPBWP!43
*206 boundarycell!DCAPHPBWP!44
*207 boundarycell!DCAPHPBWP!45
*208 boundarycell!DCAPHPBWP!46
*209 boundarycell!DCAPHPBWP!47
*210 boundarycell!DCAPHPBWP!48
*211 boundarycell!DCAPHPBWP!49
*212 boundarycell!DCAPHPBWP!50
*213 boundarycell!DCAPHPBWP!51
*214 boundarycell!DCAPHPBWP!52
*215 boundarycell!DCAPHPBWP!53
*216 boundarycell!DCAPHPBWP!54
*217 boundarycell!DCAPHPBWP!55
*218 boundarycell!DCAPHPBWP!56
*219 boundarycell!DCAPHPBWP!57
*220 boundarycell!DCAPHPBWP!58
*221 boundarycell!DCAPHPBWP!59
*222 boundarycell!DCAPHPBWP!60
*223 boundarycell!DCAPHPBWP!61
*224 boundarycell!DCAPHPBWP!62
*225 boundarycell!DCAPHPBWP!63
*226 boundarycell!DCAPHPBWP!64
*227 boundarycell!DCAPHPBWP!65
*228 boundarycell!DCAPHPBWP!66
*229 boundarycell!DCAPHPBWP!67
*230 boundarycell!DCAPHPBWP!68
*231 boundarycell!DCAPHPBWP!69
*232 boundarycell!DCAPHPBWP!70
*233 boundarycell!DCAPHPBWP!71
*234 boundarycell!DCAPHPBWP!72
*235 boundarycell!DCAPHPBWP!73
*236 boundarycell!DCAPHPBWP!74
*237 boundarycell!DCAPHPBWP!75
*238 boundarycell!DCAPHPBWP!76
*239 boundarycell!DCAPHPBWP!77
*240 boundarycell!DCAPHPBWP!78
*241 boundarycell!DCAPHPBWP!79
*242 boundarycell!DCAPHPBWP!80
*243 boundarycell!DCAPHPBWP!81
*244 boundarycell!DCAPHPBWP!82
*245 boundarycell!DCAPHPBWP!83
*246 boundarycell!DCAPHPBWP!84
*247 boundarycell!DCAPHPBWP!85
*248 boundarycell!DCAPHPBWP!86
*249 boundarycell!DCAPHPBWP!87
*250 boundarycell!DCAPHPBWP!88
*251 boundarycell!DCAPHPBWP!89
*252 boundarycell!DCAPHPBWP!90
*253 boundarycell!DCAPHPBWP!91
*254 boundarycell!DCAPHPBWP!92
*255 boundarycell!DCAPHPBWP!93
*256 boundarycell!DCAPHPBWP!94
*257 boundarycell!DCAPHPBWP!95
*258 boundarycell!DCAPHPBWP!96
*259 boundarycell!DCAPHPBWP!97
*260 boundarycell!DCAPHPBWP!98
*261 boundarycell!DCAPHPBWP!99
*262 boundarycell!DCAPHPBWP!100
*263 boundarycell!DCAPHPBWP!101
*264 boundarycell!DCAPHPBWP!102
*265 boundarycell!DCAPHPBWP!103
*266 phfnn_31
*267 ctmn_193
*268 ctmn_194
*269 ctmn_150
*270 ctmn_151
*271 phfnn_32
*272 ctmn_184
*273 phfnn_33
*274 N7
*275 N8
*276 p3[0]
*277 phfnn_34
*278 N9
*279 reg_data[3]
*280 N10
*281 reg_data[2]
*282 N11
*283 reg_data[1]
*284 N12
*285 reg_data[0]
*286 N13
*287 p1[0]
*288 N14
*289 p2[0]
*290 phfnn_38
*291 ctmn_157
*292 phfnn_35
*293 phfnn_36
*294 ctmn_169
*295 phfnn_37
*296 phfnn_39
*297 ctmn_171
*298 optlc_net_43
*299 ctmn_191
*300 ctmn_192
*301 ctmn_185
*302 ctmn_186
*303 ctmn_173
*304 ctmn_188
*305 ctmn_159
*306 ctmn_174
*307 ctmn_152
*308 ctmn_153
*309 ctmn_155
*310 ctmn_156
*311 ctmn_160
*312 ctmn_163
*313 ctmn_164
*314 ctmn_165
*315 ctmn_166
*316 ctmn_167
*317 ctmn_168
*318 ctmn_175
*319 ctmn_176
*320 ctmn_177
*321 ctmn_179
*322 ctmn_180
*323 ctmn_181
*324 ctmn_182
*325 ctmn_183
*326 ctmn_189
*327 clk_clock_gate_reg_data_reg

*PORTS

*1 I *C 46.740 33.800
*2 I *C 46.740 29.200
*3 I *C 46.740 24.800
*4 I *C 46.740 20.200
*5 I *C 46.740 15.800
*6 I *C 46.740 11.200
*7 I *C 46.740 6.800
*8 I *C 46.740 2.200
*9 I *C 0.260 33.800
*10 I *C 0.260 29.200
*11 I *C 0.260 24.800
*12 O *C 0.260 20.200
*13 O *C 0.260 15.800
*14 O *C 0.260 11.200
*15 O *C 0.260 6.800
*16 O *C 0.260 2.200
*17 I *C 22.500 19.000
*18 I *C 22.500 19.000

*D_NET *6 0.002304093 //LENGTH 17.940 LUMPCC 0 DR

*CONN
*P *6 I *L 0 *C 46.530 11.200
*I *56:I I *L 0.000898 *C 35.850 13.105
*I *26:B1 I *L 0.001036 *C 35.800 15.100
*I *73:A1 I *L 0.000775 *C 35.645 16.900
*N *6:4 *C 35.600 16.900
*N *6:5 *C 35.600 16.830
*N *6:6 *C 35.600 15.000
*N *6:7 *C 35.800 15.000
*N *6:8 *C 35.800 14.980
*N *6:9 *C 35.800 13.145
*N *6:10 *C 35.800 13.145
*N *6:11 *C 35.800 11.370
*N *6:12 *C 35.800 11.300

*CAP
0 *6 0.0005222715
1 *56:I 3.805065e-05
2 *26:B1 1e-06
3 *73:A1 1.82613e-05
4 *6:4 1.82613e-05
5 *6:5 0.0002066108
6 *6:6 0.0002263694
7 *6:7 2.371022e-05
8 *6:8 0.0001588511
9 *6:9 3.805065e-05
10 *6:10 0.0003421514
11 *6:11 0.0001645994
12 *6:12 0.0005459051

*RES
0 *6 *6:12 0.00860849
1 *6:8 *26:B1 0.001578615
2 *6:8 *6:7 1e-06
3 *6:9 *56:I 0.0001904231
4 *6:10 *6:9 0.001578615
5 *6:10 *6:8 0.001493139
6 *6:11 *6:10 0.001423422
7 *6:12 *6:11 0.001578615
8 *6:4 *73:A1 1.731952e-05
9 *6:5 *6:4 0.001578615
10 *6:6 *6:5 0.001584305
11 *6:7 *6:6 0.0001600936

*END

*D_NET *7 0.009575923 //LENGTH 58.800 LUMPCC 0 DR

*CONN
*P *7 I *L 0 *C 46.530 6.800
*I *76:C2 I *L 0.001104 *C 27.700 17.100
*I *77:A2 I *L 0.000714 *C 22.765 16.900
*I *49:A1 I *L 0.001032 *C 20.370 19.100
*I *70:A2 I *L 0.001031 *C 20.900 20.900
*I *64:B1 I *L 0.001274 *C 19.265 16.660
*I *47:I I *L 0.000898 *C 18.450 19.088
*I *74:A1 I *L 0.000775 *C 29.445 16.777
*N *7:8 *C 29.400 16.655
*N *7:9 *C 29.400 16.500
*N *7:10 *C 29.400 16.500
*N *7:11 *C 29.400 16.430
*N *7:12 *C 18.400 18.620
*N *7:13 *C 18.400 19.055
*N *7:14 *C 18.400 18.908
*N *7:15 *C 18.400 18.900
*N *7:16 *C 18.400 18.830
*N *7:17 *C 18.400 17.000
*N *7:18 *C 18.600 17.000
*N *7:19 *C 19.213 16.562
*N *7:20 *C 19.200 16.000
*N *7:21 *C 18.600 16.000
*N *7:22 *C 18.600 16.630
*N *7:23 *C 18.600 16.700
*N *7:24 *C 18.500 16.600
*N *7:25 *C 18.500 16.600
*N *7:26 *C 18.500 16.600
*N *7:27 *C 18.600 16.400
*N *7:28 *C 20.850 20.780
*N *7:29 *C 20.800 19.570
*N *7:30 *C 20.800 19.500
*N *7:31 *C 20.400 19.100
*N *7:32 *C 20.400 19.170
*N *7:33 *C 20.500 19.400
*N *7:34 *C 20.570 19.400
*N *7:35 *C 20.500 19.200
*N *7:36 *C 20.500 19.200
*N *7:37 *C 22.800 16.900
*N *7:38 *C 22.800 16.970
*N *7:39 *C 22.800 17.800
*N *7:40 *C 21.800 17.900
*N *7:41 *C 21.800 17.900
*N *7:42 *C 20.570 17.800
*N *7:43 *C 20.500 17.800
*N *7:44 *C 20.400 16.570
*N *7:45 *C 20.400 16.500
*N *7:46 *C 22.600 16.400
*N *7:47 *C 22.600 16.200
*N *7:48 *C 27.650 17.080
*N *7:49 *C 27.500 16.200
*N *7:50 *C 27.430 16.200
*N *7:51 *C 27.530 16.200
*N *7:52 *C 27.600 16.200
*N *7:53 *C 27.700 16.200
*N *7:54 *C 27.700 16.200
*N *7:55 *C 29.400 16.100
*N *7:56 *C 29.400 16.100
*N *7:57 *C 29.400 10.970
*N *7:58 *C 29.400 10.900
*N *7:59 *C 35.600 10.900
*N *7:60 *C 35.600 10.830
*N *7:61 *C 35.700 6.800
*N *7:62 *C 35.770 6.800

*CAP
0 *7 0.0005241082
1 *76:C2 1e-06
2 *77:A2 2.191884e-05
3 *49:A1 2.068977e-05
4 *70:A2 1e-06
5 *64:B1 1e-06
6 *47:I 4.524452e-05
7 *74:A1 4.638559e-05
8 *7:8 4.638559e-05
9 *7:9 2.788099e-05
10 *7:10 3.726604e-05
11 *7:11 7.68961e-05
12 *7:12 4.823525e-05
13 *7:13 4.524452e-05
14 *7:14 4.823525e-05
15 *7:15 4.292492e-05
16 *7:16 0.0002776717
17 *7:17 0.0003015372
18 *7:18 7.999893e-05
19 *7:19 7.783659e-05
20 *7:20 0.0001396187
21 *7:21 0.0001664523
22 *7:22 0.0001046702
23 *7:23 6.985603e-05
24 *7:24 5.506599e-05
25 *7:25 0.0001001087
26 *7:26 3.168324e-05
27 *7:27 0.0001594871
28 *7:28 0.0001438947
29 *7:29 0.0001438947
30 *7:30 7.685583e-05
31 *7:31 2.068977e-05
32 *7:32 5.51832e-05
33 *7:33 0.0001006019
34 *7:34 7.236507e-05
35 *7:35 4.837611e-05
36 *7:36 0.0001914188
37 *7:37 2.191884e-05
38 *7:38 0.0001173276
39 *7:39 0.0002193697
40 *7:40 0.0001285094
41 *7:41 0.0001522156
42 *7:42 0.0001216968
43 *7:43 0.0003417871
44 *7:44 0.0001503683
45 *7:45 0.0003595039
46 *7:46 0.0001950499
47 *7:47 0.0004474528
48 *7:48 0.0001203766
49 *7:49 0.0001694681
50 *7:50 6.461603e-05
51 *7:51 6.461603e-05
52 *7:52 8.69978e-06
53 *7:53 5.438141e-05
54 *7:54 0.0006092953
55 *7:55 0.0002205421
56 *7:56 0.0005662097
57 *7:57 0.000464208
58 *7:58 0.0002804681
59 *7:59 0.0002787412
60 *7:60 0.0002117029
61 *7:61 0.0002316069
62 *7:62 0.0005241082

*RES
0 *7 *7:62 0.008634112
1 *7:10 *7:9 0.001578615
2 *7:11 *7:10 0.001578615
3 *7:9 *7:8 0.001578615
4 *7:8 *74:A1 0.000213911
5 *7:57 *7:56 0.004687352
6 *7:58 *7:57 0.001578615
7 *7:60 *7:59 0.001578615
8 *7:59 *7:58 0.004959159
9 *7:62 *7:61 0.001578615
10 *7:61 *7:60 0.003225808
11 *7:56 *7:55 0.001578615
12 *7:56 *7:11 0.0003931261
13 *7:55 *7:54 0.001651735
14 *7:53 *7:52 6.865191e-05
15 *7:54 *7:53 0.001578615
16 *7:54 *7:47 0.004616924
17 *7:51 *7:50 0.000121342
18 *7:52 *7:51 0.00315723
19 *7:49 *7:48 0.0008364994
20 *7:50 *7:49 0.001578615
21 *7:48 *76:C2 0.001578615
22 *7:29 *7:28 0.001065359
23 *7:30 *7:29 0.001578615
24 *7:28 *70:A2 0.001578615
25 *7:33 *7:32 0.0001842336
26 *7:34 *7:33 0.001578615
27 *7:34 *7:30 0.0001937772
28 *7:31 *49:A1 1.733772e-05
29 *7:32 *7:31 0.001578615
30 *7:35 *7:34 0.0001712829
31 *7:36 *7:35 0.001578615
32 *7:42 *7:41 0.0009873246
33 *7:43 *7:42 0.001578615
34 *7:43 *7:36 0.001286428
35 *7:40 *7:39 0.0008010156
36 *7:41 *7:40 0.001578615
37 *7:37 *77:A2 1.73377e-05
38 *7:38 *7:37 0.001578615
39 *7:44 *7:43 0.001159881
40 *7:45 *7:44 0.001578615
41 *7:45 *7:27 0.001473096
42 *7:15 *7:14 0.001578615
43 *7:16 *7:15 0.001578615
44 *7:14 *7:13 0.001578615
45 *7:14 *7:12 0.0002632566
46 *7:13 *47:I 0.0002126738
47 *7:25 *7:24 0.001578615
48 *7:25 *7:18 0.0003951401
49 *7:26 *7:25 0.001578615
50 *7:24 *7:23 8.161618e-05
51 *7:22 *7:21 0.0006208625
52 *7:23 *7:22 0.001578615
53 *7:19 *64:B1 0.001578615
54 *7:21 *7:20 0.0004806845
55 *7:20 *7:19 0.0004513901
56 *7:39 *7:38 0.0007266121
57 *7:17 *7:16 0.002249552
58 *7:18 *7:17 0.0001657379
59 *7:27 *7:26 0.0001599754
60 *7:46 *7:45 0.001865502
61 *7:47 *7:46 0.000159975

*END

*D_NET *8 0.002656301 //LENGTH 27.300 LUMPCC 0 DR

*CONN
*P *8 I *L 0 *C 46.700 2.200
*I *62:A2 I *L 0.001028 *C 33.520 15.100
*N *8:2 *C 33.520 15.100
*N *8:3 *C 33.600 15.100
*N *8:4 *C 33.600 15.100
*N *8:5 *C 33.700 15.000
*N *8:6 *C 33.700 15.000
*N *8:7 *C 33.600 2.370
*N *8:8 *C 33.600 2.300
*N *8:9 *C 46.600 2.300
*N *8:10 *C 46.600 2.300
*N *8:11 *C 46.700 2.200

*CAP
0 *8 1e-06
1 *62:A2 1e-06
2 *8:2 3.677048e-05
3 *8:3 3.677048e-05
4 *8:4 5.788069e-05
5 *8:5 5.158508e-05
6 *8:6 0.0007807924
7 *8:7 0.0007540082
8 *8:8 0.0004435936
9 *8:9 0.0004409158
10 *8:10 2.298106e-05
11 *8:11 2.900344e-05

*RES
0 *8 *8:11 0.001578615
1 *8:2 *62:A2 0.001578615
2 *8:3 *8:2 2.40036e-05
3 *8:4 *8:3 0.001578615
4 *8:5 *8:4 8.429011e-05
5 *8:6 *8:5 0.001578615
6 *8:7 *8:6 0.01049639
7 *8:8 *8:7 0.001578615
8 *8:10 *8:9 0.001578615
9 *8:9 *8:8 0.01039813
10 *8:11 *8:10 7.998774e-05

*END

*D_NET *9 0.002897452 //LENGTH 28.720 LUMPCC 0 DR

*CONN
*P *9 I *L 0 *C 0.515 33.800
*I *71:C2 I *L 0.001104 *C 16.700 22.900
*N *9:2 *C 16.650 22.920
*N *9:3 *C 16.600 23.400
*N *9:4 *C 15.800 23.300
*N *9:5 *C 15.800 23.300
*N *9:6 *C 15.800 23.370
*N *9:7 *C 15.800 33.830
*N *9:8 *C 15.800 33.900
*N *9:9 *C 0.600 33.900
*N *9:10 *C 0.600 33.900
*N *9:11 *C 0.700 33.800
*N *9:12 *C 0.700 33.800

*CAP
0 *9 1.720156e-05
1 *71:C2 1e-06
2 *9:2 6.540483e-05
3 *9:3 0.0001460823
4 *9:4 0.0001066993
5 *9:5 2.798781e-05
6 *9:6 0.0006878618
7 *9:7 0.0006878618
8 *9:8 0.000544165
9 *9:9 0.0005404463
10 *9:10 2.437944e-05
11 *9:11 3.116014e-05
12 *9:12 1.720156e-05

*RES
0 *9 *9:12 0.0001523469
1 *9:2 *71:C2 0.001578615
2 *9:4 *9:3 0.0006409125
3 *9:5 *9:4 0.001578615
4 *9:6 *9:5 0.001578615
5 *9:7 *9:6 0.008366698
6 *9:8 *9:7 0.001578615
7 *9:10 *9:9 0.001578615
8 *9:9 *9:8 0.01215798
9 *9:12 *9:11 0.001578615
10 *9:11 *9:10 7.998629e-05
11 *9:3 *9:2 0.0003858938

*END

*D_NET *10 0.002866375 //LENGTH 31.560 LUMPCC 0 DR

*CONN
*P *10 I *L 0 *C 0.500 29.200
*I *54:B1 I *L 0.001259 *C 18.498 17.200
*N *10:2 *C 18.595 17.200
*N *10:3 *C 18.500 17.200
*N *10:4 *C 18.430 17.200
*N *10:5 *C 17.620 17.200
*N *10:6 *C 17.600 17.180
*N *10:7 *C 17.600 17.180
*N *10:8 *C 17.600 17.300
*N *10:9 *C 0.400 17.300
*N *10:10 *C 0.400 17.370
*N *10:11 *C 0.500 29.200

*CAP
0 *10 1e-06
1 *54:B1 3.466307e-05
2 *10:2 3.466307e-05
3 *10:3 4.641164e-05
4 *10:4 0.0001165543
5 *10:5 0.0001165543
6 *10:6 6.871151e-05
7 *10:7 6.871151e-05
8 *10:8 0.000761004
9 *10:9 0.0007478946
10 *10:10 0.0004280004
11 *10:11 0.0004422064

*RES
0 *10 *10:11 0.001578615
1 *10:2 *54:B1 0.0001282983
2 *10:3 *10:2 0.001578615
3 *10:4 *10:3 0.001578615
4 *10:5 *10:4 0.0007717089
5 *10:6 *10:5 0.00315723
6 *10:7 *10:6 1e-06
7 *10:8 *10:7 0.001578615
8 *10:10 *10:9 0.001578615
9 *10:9 *10:8 0.01379738
10 *10:11 *10:10 0.009462357

*END

*D_NET *11 0.001552439 //LENGTH 13.015 LUMPCC 0 DR

*CONN
*P *11 I *L 0 *C 0.495 24.800
*I *60:I I *L 0.000898 *C 10.850 23.088
*N *11:2 *C 10.800 23.055
*N *11:3 *C 10.800 23.055
*N *11:4 *C 9.800 23.000
*N *11:5 *C 9.800 24.830
*N *11:6 *C 9.800 24.900

*CAP
0 *11 0.0004639907
1 *60:I 5.506134e-05
2 *11:2 5.506134e-05
3 *11:3 9.508558e-05
4 *11:4 0.0002360139
5 *11:5 0.0001606781
6 *11:6 0.0004865477

*RES
0 *11 *11:6 0.007474057
1 *11:2 *60:I 0.0002520959
2 *11:3 *11:2 0.001578615
3 *11:5 *11:4 0.001470112
4 *11:6 *11:5 0.001578615
5 *11:4 *11:3 0.000800565

*END

*D_NET *13 0.005370168 //LENGTH 34.665 LUMPCC 0 DR

*CONN
*I *20:ZN O *L 0 *C 21.900 16.600
*I *37:A2 I *L 0.001031 *C 18.250 21.093
*P *13 O *L 0 *C 0.470 15.800
*N *13:3 *C 9.030 15.800
*N *13:4 *C 9.100 15.800
*N *13:5 *C 9.000 20.630
*N *13:6 *C 9.000 20.700
*N *13:7 *C 18.200 20.985
*N *13:8 *C 18.200 21.055
*N *13:9 *C 18.280 21.300
*N *13:10 *C 18.280 21.300
*N *13:11 *C 18.800 21.300
*N *13:12 *C 18.800 21.230
*N *13:13 *C 18.800 20.770
*N *13:14 *C 18.800 20.700
*N *13:15 *C 21.030 20.600
*N *13:16 *C 21.100 20.600
*N *13:17 *C 21.000 16.770
*N *13:18 *C 21.000 16.700
*N *13:19 *C 21.800 16.700
*N *13:20 *C 21.800 16.700
*N *13:21 *C 21.800 16.600
*N *13:22 *C 21.800 16.600

*CAP
0 *20:ZN 3.256102e-05
1 *37:A2 3.78738e-05
2 *13 0.0004486875
3 *13:3 0.0004486875
4 *13:4 0.0003225823
5 *13:5 0.0002970273
6 *13:6 0.0007353328
7 *13:7 3.78738e-05
8 *13:8 7.368334e-05
9 *13:9 7.339737e-05
10 *13:10 0.0001139459
11 *13:11 0.0001139459
12 *13:12 0.0001049605
13 *13:13 0.0001049605
14 *13:14 0.0009686502
15 *13:15 0.0002131601
16 *13:16 0.0004284318
17 *13:17 0.0003901331
18 *13:18 0.0001194863
19 *13:19 0.0001182867
20 *13:20 6.810893e-05
21 *13:21 8.583031e-05
22 *13:22 3.256102e-05

*RES
0 *20:ZN *13:22 0.0001282983
1 *13:16 *13:15 0.001578615
2 *13:15 *13:14 0.00218965
3 *13:18 *13:17 0.001578615
4 *13:17 *13:16 0.00341902
5 *13:20 *13:19 0.001578615
6 *13:19 *13:18 0.000724612
7 *13:22 *13:21 0.001578615
8 *13:21 *13:20 8.107188e-05
9 *13:13 *13:12 0.0004591766
10 *13:14 *13:13 0.001578615
11 *13:14 *13:6 0.008996324
12 *13:11 *13:10 0.0004900328
13 *13:12 *13:11 0.001578615
14 *13:9 *13:8 0.0002463588
15 *13:10 *13:9 0.001578615
16 *13:7 *37:A2 0.0002625458
17 *13:8 *13:7 0.001578615
18 *13:5 *13:4 0.003863272
19 *13:6 *13:5 0.001578615
20 *13:3 *13 0.00687721
21 *13:4 *13:3 0.001578615

*END

*D_NET *14 0.003893557 //LENGTH 29.860 LUMPCC 0 DR

*CONN
*I *42:ZN O *L 0 *C 15.940 12.360
*P *14 O *L 0 *C 0.470 11.200
*I *43:A2 I *L 0.000979 *C 12.850 23.000
*N *14:3 *C 12.700 23.000
*N *14:4 *C 12.700 23.000
*N *14:5 *C 12.700 23.000
*N *14:6 *C 12.800 22.900
*N *14:7 *C 12.800 22.830
*N *14:8 *C 4.830 11.200
*N *14:9 *C 4.900 11.200
*N *14:10 *C 4.800 12.030
*N *14:11 *C 4.800 12.100
*N *14:12 *C 12.800 12.100
*N *14:13 *C 12.800 12.170
*N *14:14 *C 14.230 12.000
*N *14:15 *C 14.350 12.000
*N *14:16 *C 15.800 12.100
*N *14:17 *C 15.800 12.170
*N *14:18 *C 15.940 12.360

*CAP
0 *42:ZN 1e-06
1 *14 0.0001968395
2 *43:A2 3.305062e-05
3 *14:3 3.305062e-05
4 *14:4 3.707199e-05
5 *14:5 4.549056e-05
6 *14:6 5.143695e-05
7 *14:7 0.0009789559
8 *14:8 0.0001968395
9 *14:9 7.334947e-05
10 *14:10 5.388683e-05
11 *14:11 0.0003497002
12 *14:12 0.000351477
13 *14:13 0.001077853
14 *14:14 9.88967e-05
15 *14:15 8.571037e-05
16 *14:16 0.0001072526
17 *14:17 4.850328e-05
18 *14:18 7.319196e-05

*RES
0 *42:ZN *14:18 0.001578615
1 *14:15 *14:14 0.001578615
2 *14:14 *14:13 0.001143778
3 *14:17 *14:16 0.001578615
4 *14:16 *14:15 0.001165271
5 *14:18 *14:17 0.0001532042
6 *14:6 *14:5 8.032832e-05
7 *14:7 *14:6 0.001578615
8 *14:4 *14:3 0.001578615
9 *14:5 *14:4 0.001578615
10 *14:3 *43:A2 0.0001283418
11 *14:13 *14:12 0.001578615
12 *14:13 *14:7 0.01031297
13 *14:12 *14:11 0.006398738
14 *14:10 *14:9 0.0006638666
15 *14:11 *14:10 0.001578615
16 *14:8 *14 0.00350369
17 *14:9 *14:8 0.001578615

*END

*D_NET *15 0.003737436 //LENGTH 32.960 LUMPCC 0 DR

*CONN
*I *19:ZN O *L 0 *C 15.740 15.640
*P *15 O *L 0 *C 0.470 6.800
*I *32:B1 I *L 0.001274 *C 13.940 19.440
*N *15:3 *C 14.080 19.420
*N *15:4 *C 14.400 19.400
*N *15:5 *C 6.630 6.800
*N *15:6 *C 6.700 6.800
*N *15:7 *C 6.600 18.030
*N *15:8 *C 6.600 18.100
*N *15:9 *C 14.430 18.000
*N *15:10 *C 14.500 18.000
*N *15:11 *C 14.500 18.000
*N *15:12 *C 14.400 17.900
*N *15:13 *C 14.400 17.900
*N *15:14 *C 14.400 15.770
*N *15:15 *C 14.400 15.700
*N *15:16 *C 15.600 15.700
*N *15:17 *C 15.600 15.700
*N *15:18 *C 15.740 15.640

*CAP
0 *19:ZN 1e-06
1 *15 0.0002924377
2 *32:B1 1e-06
3 *15:3 6.719246e-05
4 *15:4 0.0002231881
5 *15:5 0.0002924377
6 *15:6 0.0005104356
7 *15:7 0.0004938054
8 *15:8 0.0003943402
9 *15:9 0.000378235
10 *15:10 3.159319e-05
11 *15:11 4.426149e-05
12 *15:12 5.251059e-05
13 *15:13 0.000396623
14 *15:14 0.0002141082
15 *15:15 9.649413e-05
16 *15:16 0.0001051315
17 *15:17 6.906402e-05
18 *15:18 7.357766e-05

*RES
0 *19:ZN *15:18 0.001578615
1 *15:14 *15:13 0.00175543
2 *15:15 *15:14 0.001578615
3 *15:17 *15:16 0.001578615
4 *15:16 *15:15 0.0009728502
5 *15:18 *15:17 5.999717e-05
6 *15:3 *32:B1 0.001578615
7 *15:13 *15:12 0.001578615
8 *15:13 *15:4 0.001320564
9 *15:12 *15:11 8.03072e-05
10 *15:11 *15:10 0.001578615
11 *15:10 *15:9 0.001578615
12 *15:9 *15:8 0.006262938
13 *15:7 *15:6 0.008982205
14 *15:8 *15:7 0.001578615
15 *15:5 *15 0.004950991
16 *15:6 *15:5 0.001578615
17 *15:4 *15:3 0.0002690103

*END

*D_NET *16 0.002884553 //LENGTH 26.560 LUMPCC 0 DR

*CONN
*I *30:ZN O *L 0 *C 13.900 12.870
*I *24:A1 I *L 0.001083 *C 11.400 13.000
*P *16 O *L 0 *C 0.470 2.200
*N *16:3 *C 13.755 12.400
*N *16:4 *C 8.830 2.200
*N *16:5 *C 8.900 2.200
*N *16:6 *C 8.800 12.830
*N *16:7 *C 8.800 12.900
*N *16:8 *C 11.230 12.800
*N *16:9 *C 11.300 12.800
*N *16:10 *C 11.400 12.700
*N *16:11 *C 11.400 12.980
*N *16:12 *C 11.400 12.770
*N *16:13 *C 11.420 12.800
*N *16:14 *C 12.600 12.700
*N *16:15 *C 12.600 12.630
*N *16:16 *C 12.600 12.400
*N *16:17 *C 13.710 12.560

*CAP
0 *30:ZN 1e-06
1 *24:A1 1e-06
2 *16 0.0003073445
3 *16:3 1.978035e-05
4 *16:4 0.0003073445
5 *16:5 0.0006277559
6 *16:6 0.0006054455
7 *16:7 0.0001451631
8 *16:8 0.0001272048
9 *16:9 4.55882e-05
10 *16:10 3.76889e-05
11 *16:11 5.08176e-05
12 *16:12 5.08176e-05
13 *16:13 0.000100758
14 *16:14 0.0001291332
15 *16:15 4.30043e-05
16 *16:16 0.0001413958
17 *16:17 0.0001433104

*RES
0 *30:ZN *16:17 0.001578615
1 *16:17 *16:16 0.0008916286
2 *16:17 *16:3 3.606029e-05
3 *16:15 *16:14 0.001578615
4 *16:14 *16:13 0.001058423
5 *16:12 *16:11 0.0001791084
6 *16:13 *16:12 0.001578615
7 *16:13 *16:10 0.001578615
8 *16:11 *24:A1 0.00315723
9 *16:10 *16:9 8.130615e-05
10 *16:9 *16:8 0.001578615
11 *16:8 *16:7 0.001943616
12 *16:6 *16:5 0.008502191
13 *16:7 *16:6 0.001578615
14 *16:4 *16 0.006719268
15 *16:5 *16:4 0.001578615
16 *16:16 *16:15 0.0001872864

*END

*D_NET *1 0.00591919 //LENGTH 36.130 LUMPCC 0 DR

*CONN
*P *1 I *L 0 *C 46.580 33.800
*I *103:CP I *L 0.00222 *C 23.645 24.900
*N *1:2 *C 23.600 33.750
*N *1:3 *C 23.600 24.620
*N *1:4 *C 23.600 24.900
*N *1:5 *C 23.600 24.900
*N *1:6 *C 23.600 24.900
*N *1:7 *C 23.600 24.970
*N *1:8 *C 23.600 28.155
*N *1:9 *C 23.600 33.700
*N *1:10 *C 23.600 33.700
*N *1:11 *C 24.500 33.800
*N *1:12 *C 24.500 33.800
*N *1:13 *C 26.500 33.800
*N *1:14 *C 26.500 33.800
*N *1:15 *C 27.500 33.800
*N *1:16 *C 27.500 33.800
*N *1:17 *C 29.500 33.800
*N *1:18 *C 29.500 33.800
*N *1:19 *C 30.500 33.800
*N *1:20 *C 30.500 33.800
*N *1:21 *C 32.500 33.800
*N *1:22 *C 32.500 33.800
*N *1:23 *C 33.500 33.800
*N *1:24 *C 33.500 33.800
*N *1:25 *C 35.500 33.800
*N *1:26 *C 35.500 33.800

*CAP
0 *1 0.0004897216
1 *103:CP 2.031811e-05
2 *1:2 1.904876e-05
3 *1:3 4.410429e-05
4 *1:4 2.031811e-05
5 *1:5 7.114822e-05
6 *1:6 2.772596e-05
7 *1:7 0.0004756184
8 *1:8 0.001228167
9 *1:9 0.0007688767
10 *1:10 0.0001021253
11 *1:11 5.742561e-05
12 *1:12 0.0001710121
13 *1:13 0.0001710121
14 *1:14 6.733461e-05
15 *1:15 6.733461e-05
16 *1:16 0.0002522186
17 *1:17 0.0002522186
18 *1:18 7.511381e-05
19 *1:19 7.511381e-05
20 *1:20 0.0001797977
21 *1:21 0.0001797977
22 *1:22 7.337849e-05
23 *1:23 7.337849e-05
24 *1:24 0.00023358
25 *1:25 0.00023358
26 *1:26 0.0004897216

*RES
0 *1 *1:26 0.007304954
1 *1:4 *103:CP 1.733584e-05
2 *1:5 *1:4 0.001578615
3 *1:5 *1:3 0.0002242844
4 *1:6 *1:5 0.001578615
5 *1:7 *1:6 0.001578615
6 *1:10 *1:9 0.001578615
7 *1:10 *1:2 1e-06
8 *1:9 *1:8 0.003658118
9 *1:12 *1:11 0.001578615
10 *1:11 *1:10 0.0005938932
11 *1:13 *1:12 0.001318173
12 *1:14 *1:13 0.001578615
13 *1:15 *1:14 0.0006598813
14 *1:16 *1:15 0.001578615
15 *1:18 *1:17 0.001578615
16 *1:17 *1:16 0.00131823
17 *1:20 *1:19 0.001578615
18 *1:19 *1:18 0.0006598683
19 *1:21 *1:20 0.001318135
20 *1:22 *1:21 0.001578615
21 *1:23 *1:22 0.0006598549
22 *1:24 *1:23 0.001578615
23 *1:26 *1:25 0.001578615
24 *1:25 *1:24 0.001317609
25 *1:8 *1:7 0.004227532

*END

*D_NET *2 0.00805528 //LENGTH 57.080 LUMPCC 0 DR

*CONN
*P *2 I *L 0 *C 46.530 29.200
*I *36:CDN I *L 0.002077 *C 30.200 25.000
*I *86:CDN I *L 0.002077 *C 23.200 23.000
*I *25:CDN I *L 0.002077 *C 15.400 17.000
*I *29:CDN I *L 0.002147 *C 15.500 21.000
*I *38:CDN I *L 0.002147 *C 16.740 25.000
*I *40:CDN I *L 0.002077 *C 35.400 23.000
*I *23:CDN I *L 0.002077 *C 35.400 19.000
*N *2:8 *C 35.400 19.070
*N *2:9 *C 35.400 23.000
*N *2:10 *C 35.400 22.830
*N *2:11 *C 35.400 22.900
*N *2:12 *C 35.500 22.800
*N *2:13 *C 35.500 22.800
*N *2:14 *C 16.670 25.000
*N *2:15 *C 15.800 25.100
*N *2:16 *C 15.800 25.100
*N *2:17 *C 15.570 25.000
*N *2:18 *C 15.500 25.000
*N *2:19 *C 15.500 21.000
*N *2:20 *C 15.400 17.070
*N *2:21 *C 15.400 20.830
*N *2:22 *C 15.400 20.900
*N *2:23 *C 15.500 21.000
*N *2:24 *C 15.500 21.000
*N *2:25 *C 15.400 24.500
*N *2:26 *C 15.400 24.500
*N *2:27 *C 23.200 23.000
*N *2:28 *C 23.200 22.900
*N *2:29 *C 23.200 22.900
*N *2:30 *C 23.200 22.970
*N *2:31 *C 23.200 24.430
*N *2:32 *C 23.200 24.500
*N *2:33 *C 30.200 25.000
*N *2:34 *C 30.200 25.100
*N *2:35 *C 30.200 25.100
*N *2:36 *C 30.200 25.030
*N *2:37 *C 30.200 24.570
*N *2:38 *C 30.200 24.500
*N *2:39 *C 35.400 24.500
*N *2:40 *C 35.400 24.500
*N *2:41 *C 35.500 29.200
*N *2:42 *C 35.570 29.200

*CAP
0 *2 0.0005460174
1 *36:CDN 1e-06
2 *86:CDN 1e-06
3 *25:CDN 1e-06
4 *29:CDN 1e-06
5 *38:CDN 1e-06
6 *40:CDN 1e-06
7 *23:CDN 1e-06
8 *2:8 0.0003770472
9 *2:9 6.702339e-05
10 *2:10 0.0004074571
11 *2:11 4.674918e-05
12 *2:12 3.829381e-05
13 *2:13 0.0001376071
14 *2:14 0.0001044101
15 *2:15 0.0001298202
16 *2:16 5.909508e-05
17 *2:17 3.381525e-05
18 *2:18 8.552383e-05
19 *2:19 8.376499e-05
20 *2:20 0.000457248
21 *2:21 0.0004874708
22 *2:22 5.854147e-05
23 *2:23 4.75622e-05
24 *2:24 0.0002989859
25 *2:25 0.0003293252
26 *2:26 0.0004789255
27 *2:27 7.467462e-05
28 *2:28 5.899538e-05
29 *2:29 2.788966e-05
30 *2:30 0.0001998693
31 *2:31 0.0001998693
32 *2:32 0.0008728357
33 *2:33 8.044374e-05
34 *2:34 6.48428e-05
35 *2:35 3.10968e-05
36 *2:36 7.779623e-05
37 *2:37 7.779623e-05
38 *2:38 0.0006282302
39 *2:39 0.000234752
40 *2:40 0.0003498523
41 *2:41 0.0002486338
42 *2:42 0.0005460174

*RES
0 *2 *2:42 0.008784427
1 *2:8 *23:CDN 0.001578615
2 *2:42 *2:41 0.001578615
3 *2:41 *2:40 0.003759424
4 *2:12 *2:11 8.026516e-05
5 *2:13 *2:12 0.001578615
6 *2:10 *2:9 0.0001360543
7 *2:10 *2:8 0.003339805
8 *2:11 *2:10 0.001578615
9 *2:9 *40:CDN 0.001578615
10 *2:40 *2:39 0.001578615
11 *2:40 *2:13 0.001359792
12 *2:39 *2:38 0.004159363
13 *2:37 *2:36 0.0003869532
14 *2:38 *2:37 0.001578615
15 *2:38 *2:32 0.005599142
16 *2:35 *2:34 0.001578615
17 *2:36 *2:35 0.001578615
18 *2:34 *2:33 8.010157e-05
19 *2:33 *36:CDN 0.001578615
20 *2:31 *2:30 0.00142605
21 *2:32 *2:31 0.001578615
22 *2:32 *2:26 0.006239044
23 *2:29 *2:28 0.001578615
24 *2:30 *2:29 0.001578615
25 *2:28 *2:27 8.010158e-05
26 *2:27 *86:CDN 0.001578615
27 *2:19 *29:CDN 0.001578615
28 *2:20 *25:CDN 0.001578615
29 *2:17 *2:16 0.0001846609
30 *2:18 *2:17 0.001578615
31 *2:15 *2:14 0.0006969925
32 *2:16 *2:15 0.001578615
33 *2:14 *38:CDN 0.001578615
34 *2:25 *2:24 0.002847162
35 *2:25 *2:18 0.0003999374
36 *2:26 *2:25 0.001578615
37 *2:21 *2:20 0.003723188
38 *2:21 *2:19 0.0001677124
39 *2:22 *2:21 0.001578615