*SPEF "1481-1998"
*DESIGN "top"
*DATE "Sun May 25 01:12:01 2025"
*VENDOR "Synopsys, Inc."
*PROGRAM "fc /mnt/vol_synopsys2023/synopsys/fusioncompiler/U-2022.12-SP6/linux64/nwtn/bin/dgcom_exec"
*VERSION "U-2022.12-SP6 Aug 25, 2023"
*DESIGN_FLOW "ICC2 SPEF DR"
*DIVIDER /
*DELIMITER :
*BUS_DELIMITER [ ]
*T_UNIT 1 NS
*C_UNIT 1 PF
*R_UNIT 1 KOHM
*L_UNIT 1 HENRY

// XY_UNIT 1 UM
// PARASITIC_TECH RC_Best at 125.000 degree

*NAME_MAP
*1 clk
*2 rst
*3 enable
*4 load
*5 serial_in
*6 mode[1]
*7 mode[0]
*8 parallel_in[15]
*9 parallel_in[14]
*10 parallel_in[13]
*11 parallel_in[12]
*12 parallel_in[11]
*13 parallel_in[10]
*14 parallel_in[9]
*15 parallel_in[8]
*16 parallel_in[7]
*17 parallel_in[6]
*18 parallel_in[5]
*19 parallel_in[4]
*20 parallel_in[3]
*21 parallel_in[2]
*22 parallel_in[1]
*23 parallel_in[0]
*24 serial_out
*25 parallel_out[15]
*26 parallel_out[14]
*27 parallel_out[13]
*28 parallel_out[12]
*29 parallel_out[11]
*30 parallel_out[10]
*31 parallel_out[9]
*32 parallel_out[8]
*33 parallel_out[7]
*34 parallel_out[6]
*35 parallel_out[5]
*36 parallel_out[4]
*37 parallel_out[3]
*38 parallel_out[2]
*39 parallel_out[1]
*40 parallel_out[0]
*41 VDD
*42 VSS
*43 ctmi_571
*44 reg_data_reg[15]
*45 reg_data_reg[14]
*46 p3_reg[2]
*47 p3_reg[1]
*48 p3_reg[0]
*49 phfnr_buf_118
*50 place_optHFSINV_1560_130
*51 ctmi_29
*52 ctmi_30
*53 phfnr_buf_120
*54 ctmi_32
*55 ctmi_33
*56 phfnr_buf_122
*57 ctmi_35
*58 ctmi_656
*59 reg_data_reg[13]
*60 reg_data_reg[12]
*61 p1_reg[2]
*62 p1_reg[1]
*63 p1_reg[3]
*64 reg_data_reg[11]
*65 reg_data_reg[10]
*66 p1_reg[0]
*67 p2_reg[3]
*68 p2_reg[2]
*69 ctmi_709
*70 ctmi_710
*71 ctmi_711
*72 reg_data_reg[7]
*73 reg_data_reg[6]
*74 reg_data_reg[5]
*75 reg_data_reg[4]
*76 reg_data_reg[3]
*77 reg_data_reg[2]
*78 reg_data_reg[1]
*79 reg_data_reg[0]
*80 ctmi_658
*81 ctmi_669
*82 ctmi_675
*83 ctmi_681
*84 ctmi_688
*85 ctmi_695
*86 ctmi_699
*87 ctmi_700
*88 phfnr_buf_117
*89 p2_reg[1]
*90 p2_reg[0]
*91 ctmi_667
*92 ctmi_706
*93 ctmi_693
*94 ctmi_633
*95 ctmi_645
*96 ctmi_686
*97 ctmi_595
*98 ctmi_679
*99 ctmi_606
*100 ctmi_697
*101 ctmi_673
*102 ctmi_668
*103 ctmi_707
*104 ctmi_581
*105 ctmi_694
*106 ctmi_584
*107 ctmi_589
*108 ctmi_587
*109 ctmi_590
*110 ctmi_657
*111 ctmi_592
*112 phfnr_buf_123
*113 ctmi_596
*114 ctmi_600
*115 ctmi_598
*116 ctmi_601
*117 ctmi_646
*118 ctmi_602
*119 ctmi_680
*120 phfnr_buf_121
*121 ctmi_634
*122 ctmi_610
*123 ctmi_698
*124 ctmi_674
*125 ctmi_613
*126 ctmi_635
*127 reg_data_reg[9]
*128 ctmi_712
*129 ctmi_708
*130 ctmi_713
*131 ctmi_714
*132 ctmi_715
*133 ctmi_716
*134 ctmi_717
*135 phfnr_buf_125
*136 ctmi_719
*137 ctmi_647
*138 ctmi_720
*139 ctmi_721
*140 reg_data_reg[8]
*141 phfnr_buf_126
*142 place_optctmTdsLR_2_79
*143 ctmi_573
*144 ctmi_576
*145 ctmi_572
*146 ctmi_578
*147 ctmi_608
*148 ctmi_670
*149 ctmi_696
*150 ctmi_591
*151 ctmi_659
*152 ctmi_689
*153 ctmi_648
*154 ctmi_682
*155 ctmi_636
*156 ctmi_701
*157 ctmi_676
*158 place_optctmTdsLR_1_80
*159 ctmi_705
*160 ctmi_702
*161 ctmi_683
*162 place_optctmTdsLR_1_81
*163 ctmi_577
*164 ctmi_574
*165 ctmi_579
*166 phfnr_buf_127
*167 ctmi_585
*168 ctmi_588
*169 ctmi_37
*170 ctmi_594
*171 ctmi_597
*172 ctmi_599
*173 ctmi_604
*174 ctmi_605
*175 place_optctmTdsLR_1_131
*176 ctmi_611
*177 place_optoptlc_2858
*178 ctmi_637
*179 ctmi_638
*180 ctmi_639
*181 ctmi_684
*182 ctmi_649
*183 ctmi_650
*184 ctmi_651
*185 ctmi_660
*186 ctmi_661
*187 ctmi_662
*188 ctmi_671
*189 ctmi_672
*190 ctmi_677
*191 ctmi_678
*192 ctmi_685
*193 place_optoptlc_2859
*194 place_optoptlc_2860
*195 ctmi_103
*196 ctmi_615
*197 ctmi_104
*198 ctmi_640
*199 ctmi_652
*200 ctmi_663
*201 ctmi_583
*202 ctmi_586
*203 ctmi_616
*204 ctmi_617
*205 ctmi_105
*206 place_optctmTdsLR_1_100
*207 place_optctmTdsLR_1_75
*208 place_optctmTdsLR_2_101
*209 ctmi_623
*210 place_optctmTdsLR_2_76
*211 place_optctmTdsLR_3_77
*212 ctmi_626
*213 ctmi_627
*214 ctmi_628
*215 ctmi_629
*216 ctmi_630
*217 ctmi_631
*218 ctmi_632
*219 ctmi_641
*220 ctmi_642
*221 ctmi_643
*222 ctmi_644
*223 ctmi_653
*224 ctmi_654
*225 ctmi_655
*226 ctmi_523
*227 place_optoptlc_2861
*228 ctmi_525
*229 ctmi_527
*230 xofiller!DCAP16HPBWP!x106000y120000
*231 xofiller!DCAP16HPBWP!x138000y120000
*232 ctmi_529
*233 xofiller!DCAP16HPBWP!x170000y120000
*234 xofiller!DCAP16HPBWP!x202000y120000
*235 ctmi_531
*236 xofiller!DCAP4HPBWP!x234000y120000
*237 xofiller!DCAP4HPBWP!x242000y120000
*238 ctmi_533
*239 ctmi_39
*240 ctmi_535
*241 ctmi_536
*242 ctmi_40
*243 xofiller!DCAP16HPBWP!x254000y120000
*244 xofiller!DCAP16HPBWP!x286000y120000
*245 ctmi_540
*246 ctmi_41
*247 ctmi_542
*248 xofiller!DCAP16HPBWP!x318000y120000
*249 xofiller!DCAP4HPBWP!x350000y120000
*250 xofiller!DCAP4HPBWP!x358000y120000
*251 xofiller!DCAP16HPBWP!x554000y120000
*252 xofiller!DCAP4HPBWP!x586000y120000
*253 xofiller!DCAP4HPBWP!x594000y120000
*254 ctmi_545
*255 ctmi_547
*256 xofiller!DCAP4HPBWP!x602000y120000
*257 ctmi_550
*258 ctmi_551
*259 xofiller!DCAP16HPBWP!x378000y140000
*260 xofiller!DCAP4HPBWP!x450000y140000
*261 xofiller!DCAP4HPBWP!x458000y140000
*262 ctmi_555
*263 ctmi_557
*264 ctmi_558
*265 xofiller!DCAP4HPBWP!x598000y140000
*266 xofiller!DCAP4HPBWP!x606000y140000
*267 xofiller!DCAP16HPBWP!x106000y160000
*268 xofiller!DCAP4HPBWP!x138000y160000
*269 xofiller!DCAP4HPBWP!x146000y160000
*270 ctmi_561
*271 xofiller!DCAP4HPBWP!x154000y160000
*272 xofiller!DCAP4HPBWP!x178000y160000
*273 xofiller!DCAP4HPBWP!x264000y160000
*274 xofiller!DCAP4HPBWP!x298000y160000
*275 ctmi_565
*276 xofiller!DCAP4HPBWP!x540000y160000
*277 xofiller!DCAP16HPBWP!x554000y160000
*278 ctmi_569
*279 xofiller!DCAP4HPBWP!x586000y160000
*280 xofiller!DCAP4HPBWP!x594000y160000
*281 ctmi_664
*282 ctmi_665
*283 xofiller!DCAP4HPBWP!x602000y160000
*284 xofiller!DCAP4HPBWP!x106000y180000
*285 p3_reg[3]
*286 xofiller!DCAP4HPBWP!x212000y180000
*287 xofiller!DCAP4HPBWP!x220000y180000
*288 xofiller!DCAP4HPBWP!x342000y180000
*289 xofiller!DCAP16HPBWP!x366000y180000
*290 xofiller!DCAP4HPBWP!x398000y180000
*291 xofiller!DCAP4HPBWP!x406000y180000
*292 xofiller!DCAP4HPBWP!x508000y180000
*293 xofiller!DCAP4HPBWP!x516000y180000
*294 xofiller!DCAP16HPBWP!x582000y180000
*295 xofiller!DCAP4HPBWP!x184000y200000
*296 xofiller!DCAPHPBWP!x192000y200000
*297 xofiller!DCAP4HPBWP!x306000y200000
*298 xofiller!DCAP4HPBWP!x314000y200000
*299 xofiller!DCAP4HPBWP!x366000y200000
*300 xofiller!DCAP16HPBWP!x554000y200000
*301 xofiller!DCAP4HPBWP!x586000y200000
*302 xofiller!DCAP4HPBWP!x594000y200000
*303 xofiller!DCAP4HPBWP!x602000y200000
*304 xofiller!DCAP16HPBWP!x106000y220000
*305 xofiller!DCAP4HPBWP!x138000y220000
*306 xofiller!DCAPHPBWP!x254000y220000
*307 xofiller!DCAP4HPBWP!x340000y220000
*308 xofiller!DCAP4HPBWP!x348000y220000
*309 xofiller!DCAP4HPBWP!x600000y220000
*310 clock_gate_reg_data_reg
*311 xofiller!DCAPHPBWP!x608000y220000
*312 xofiller!DCAP16HPBWP!x258000y240000
*313 xofiller!DCAP4HPBWP!x290000y240000
*314 xofiller!DCAP16HPBWP!x386000y240000
*315 xofiller!DCAP4HPBWP!x418000y240000
*316 xofiller!DCAP4HPBWP!x454000y240000
*317 xofiller!DCAP4HPBWP!x502000y240000
*318 xofiller!DCAP4HPBWP!x536000y240000
*319 xofiller!DCAPHPBWP!x544000y240000
*320 xofiller!DCAP16HPBWP!x554000y240000
*321 xofiller!DCAP4HPBWP!x586000y240000
*322 xofiller!DCAP4HPBWP!x594000y240000
*323 xofiller!DCAP4HPBWP!x602000y240000
*324 xofiller!DCAP4HPBWP!x106000y260000
*325 xofiller!DCAPHPBWP!x114000y260000
*326 xofiller!DCAP16HPBWP!x126000y260000
*327 xofiller!DCAP16HPBWP!x158000y260000
*328 xofiller!DCAP4HPBWP!x190000y260000
*329 xofiller!DCAP4HPBWP!x242000y260000
*330 xofiller!DCAPHPBWP!x254000y260000
*331 xofiller!DCAPHPBWP!x384000y260000
*332 xofiller!DCAP4HPBWP!x482000y260000
*333 xofiller!DCAP4HPBWP!x518000y260000
*334 xofiller!DCAPHPBWP!x526000y260000
*335 xofiller!DCAP4HPBWP!x602000y260000
*336 xofiller!DCAP4HPBWP!x524000y280000
*337 xofiller!DCAP4HPBWP!x538000y280000
*338 xofiller!DCAP4HPBWP!x554000y280000
*339 xofiller!DCAP4HPBWP!x562000y280000
*340 xofiller!DCAP4HPBWP!x586000y280000
*341 xofiller!DCAP4HPBWP!x594000y280000
*342 xofiller!DCAP4HPBWP!x602000y280000
*343 xofiller!DCAP4HPBWP!x178000y300000
*344 xofiller!DCAP4HPBWP!x212000y300000
*345 xofiller!DCAP16HPBWP!x278000y300000
*346 xofiller!DCAP4HPBWP!x310000y300000
*347 xofiller!DCAP4HPBWP!x318000y300000
*348 xofiller!DCAPHPBWP!x326000y300000
*349 xofiller!DCAP4HPBWP!x366000y300000
*350 xofiller!DCAPHPBWP!x480000y300000
*351 xofiller!DCAP16HPBWP!x106000y320000
*352 xofiller!DCAP4HPBWP!x138000y320000
*353 xofiller!DCAP4HPBWP!x146000y320000
*354 xofiller!DCAP16HPBWP!x326000y320000
*355 xofiller!DCAP4HPBWP!x398000y320000
*356 xofiller!DCAP4HPBWP!x514000y320000
*357 xofiller!DCAP4HPBWP!x522000y320000
*358 xofiller!DCAP4HPBWP!x554000y320000
*359 xofiller!DCAP4HPBWP!x106000y340000
*360 xofiller!DCAP16HPBWP!x106000y360000
*361 xofiller!DCAP16HPBWP!x138000y360000
*362 xofiller!DCAP4HPBWP!x170000y360000
*363 xofiller!DCAP4HPBWP!x206000y360000
*364 xofiller!DCAP4HPBWP!x234000y360000
*365 xofiller!DCAP4HPBWP!x292000y360000
*366 xofiller!DCAPHPBWP!x300000y360000
*367 xofiller!DCAPHPBWP!x358000y360000
*368 xofiller!DCAP16HPBWP!x378000y360000
*369 xofiller!DCAP4HPBWP!x410000y360000
*370 xofiller!DCAP4HPBWP!x436000y360000
*371 xofiller!DCAP4HPBWP!x494000y360000
*372 xofiller!DCAPHPBWP!x544000y360000
*373 xofiller!DCAPHPBWP!x608000y360000
*374 xofiller!DCAP4HPBWP!x106000y380000
*375 xofiller!DCAP4HPBWP!x114000y380000
*376 xofiller!DCAP4HPBWP!x254000y380000
*377 xofiller!DCAP16HPBWP!x452000y380000
*378 xofiller!DCAPHPBWP!x484000y380000
*379 xofiller!DCAP16HPBWP!x106000y400000
*380 xofiller!DCAP16HPBWP!x138000y400000
*381 xofiller!DCAP4HPBWP!x170000y400000
*382 xofiller!DCAPHPBWP!x178000y400000
*383 xofiller!DCAP16HPBWP!x214000y400000
*384 xofiller!DCAP16HPBWP!x254000y400000
*385 xofiller!DCAP16HPBWP!x286000y400000
*386 xofiller!DCAP4HPBWP!x318000y400000
*387 xofiller!DCAP4HPBWP!x326000y400000
*388 xofiller!DCAP16HPBWP!x374000y400000
*389 xofiller!DCAP16HPBWP!x406000y400000
*390 xofiller!DCAP4HPBWP!x438000y400000
*391 xofiller!DCAP4HPBWP!x446000y400000
*392 xofiller!DCAP16HPBWP!x514000y400000
*393 xofiller!DCAP16HPBWP!x554000y400000
*394 xofiller!DCAP4HPBWP!x586000y400000
*395 xofiller!DCAP4HPBWP!x594000y400000
*396 xofiller!DCAP4HPBWP!x602000y400000
*397 xofiller!FILL1HPBWP!x366000y120000
*398 xofiller!FILL1HPBWP!x610000y120000
*399 xofiller!FILL1HPBWP!x612000y120000
*400 xofiller!FILL1HPBWP!x246000y140000
*401 xofiller!FILL1HPBWP!x248000y140000
*402 xofiller!FILL1HPBWP!x466000y140000
*403 xofiller!FILL1HPBWP!x484000y140000
*404 xofiller!FILL1HPBWP!x486000y140000
*405 xofiller!FILL1HPBWP!x162000y160000
*406 xofiller!FILL1HPBWP!x210000y160000
*407 xofiller!FILL1HPBWP!x212000y160000
*408 xofiller!FILL1HPBWP!x244000y160000
*409 xofiller!FILL1HPBWP!x246000y160000
*410 xofiller!FILL1HPBWP!x272000y160000
*411 xofiller!FILL1HPBWP!x334000y160000
*412 xofiller!FILL1HPBWP!x496000y160000
*413 xofiller!FILL1HPBWP!x512000y160000
*414 xofiller!FILL1HPBWP!x548000y160000
*415 xofiller!FILL1HPBWP!x610000y160000
*416 xofiller!FILL1HPBWP!x612000y160000
*417 xofiller!FILL1HPBWP!x114000y180000
*418 xofiller!FILL1HPBWP!x116000y180000
*419 xofiller!FILL1HPBWP!x236000y180000
*420 xofiller!FILL1HPBWP!x246000y180000
*421 xofiller!FILL1HPBWP!x248000y180000
*422 xofiller!FILL1HPBWP!x284000y180000
*423 xofiller!FILL1HPBWP!x350000y180000
*424 xofiller!FILL1HPBWP!x430000y180000
*425 xofiller!FILL1HPBWP!x458000y180000
*426 xofiller!FILL1HPBWP!x460000y180000
*427 xofiller!FILL1HPBWP!x524000y180000
*428 xofiller!FILL1HPBWP!x544000y180000
*429 xofiller!FILL1HPBWP!x546000y180000
*430 xofiller!FILL1HPBWP!x230000y200000
*431 xofiller!FILL1HPBWP!x286000y200000
*432 xofiller!FILL1HPBWP!x288000y200000
*433 xofiller!FILL1HPBWP!x330000y200000
*434 xofiller!FILL1HPBWP!x374000y200000
*435 xofiller!FILL1HPBWP!x376000y200000
*436 xofiller!FILL1HPBWP!x412000y200000
*437 xofiller!FILL1HPBWP!x452000y200000
*438 xofiller!FILL1HPBWP!x454000y200000
*439 xofiller!FILL1HPBWP!x512000y200000
*440 xofiller!FILL1HPBWP!x548000y200000
*441 xofiller!FILL1HPBWP!x610000y200000
*442 xofiller!FILL1HPBWP!x612000y200000
*443 xofiller!FILL1HPBWP!x146000y220000
*444 xofiller!FILL1HPBWP!x148000y220000
*445 xofiller!FILL1HPBWP!x182000y220000
*446 xofiller!FILL1HPBWP!x208000y220000
*447 xofiller!FILL1HPBWP!x210000y220000
*448 xofiller!FILL1HPBWP!x228000y220000
*449 xofiller!FILL1HPBWP!x308000y220000
*450 xofiller!FILL1HPBWP!x440000y220000
*451 xofiller!FILL1HPBWP!x442000y220000
*452 xofiller!FILL1HPBWP!x490000y220000
*453 xofiller!FILL1HPBWP!x522000y220000
*454 xofiller!FILL1HPBWP!x174000y240000
*455 xofiller!FILL1HPBWP!x238000y240000
*456 xofiller!FILL1HPBWP!x240000y240000
*457 xofiller!FILL1HPBWP!x298000y240000
*458 xofiller!FILL1HPBWP!x316000y240000
*459 xofiller!FILL1HPBWP!x354000y240000
*460 xofiller!FILL1HPBWP!x426000y240000
*461 xofiller!FILL1HPBWP!x428000y240000
*462 xofiller!FILL1HPBWP!x510000y240000
*463 xofiller!FILL1HPBWP!x610000y240000
*464 xofiller!FILL1HPBWP!x612000y240000
*465 xofiller!FILL1HPBWP!x214000y260000
*466 xofiller!FILL1HPBWP!x216000y260000
*467 xofiller!FILL1HPBWP!x276000y260000
*468 xofiller!FILL1HPBWP!x466000y260000
*469 xofiller!FILL1HPBWP!x610000y260000
*470 xofiller!FILL1HPBWP!x612000y260000
*471 xofiller!FILL1HPBWP!x114000y280000
*472 xofiller!FILL1HPBWP!x210000y280000
*473 xofiller!FILL1HPBWP!x338000y280000
*474 xofiller!FILL1HPBWP!x340000y280000
*475 xofiller!FILL1HPBWP!x462000y280000
*476 xofiller!FILL1HPBWP!x464000y280000
*477 xofiller!FILL1HPBWP!x500000y280000
*478 xofiller!FILL1HPBWP!x546000y280000
*479 xofiller!FILL1HPBWP!x548000y280000
*480 xofiller!FILL1HPBWP!x570000y280000
*481 xofiller!FILL1HPBWP!x610000y280000
*482 xofiller!FILL1HPBWP!x612000y280000
*483 xofiller!FILL1HPBWP!x228000y300000
*484 xofiller!FILL1HPBWP!x246000y300000
*485 xofiller!FILL1HPBWP!x248000y300000
*486 xofiller!FILL1HPBWP!x348000y300000
*487 xofiller!FILL1HPBWP!x388000y300000
*488 xofiller!FILL1HPBWP!x402000y300000
*489 xofiller!FILL1HPBWP!x404000y300000
*490 xofiller!FILL1HPBWP!x422000y300000
*491 xofiller!FILL1HPBWP!x424000y300000
*492 xofiller!FILL1HPBWP!x444000y300000
*493 xofiller!FILL1HPBWP!x446000y300000
*494 xofiller!FILL1HPBWP!x502000y300000
*495 xofiller!FILL1HPBWP!x504000y300000
*496 xofiller!FILL1HPBWP!x522000y300000
*497 xofiller!FILL1HPBWP!x524000y300000
*498 xofiller!FILL1HPBWP!x610000y300000
*499 xofiller!FILL1HPBWP!x612000y300000
*500 xofiller!FILL1HPBWP!x154000y320000
*501 xofiller!FILL1HPBWP!x194000y320000
*502 xofiller!FILL1HPBWP!x196000y320000
*503 xofiller!FILL1HPBWP!x212000y320000
*504 xofiller!FILL1HPBWP!x232000y320000
*505 xofiller!FILL1HPBWP!x254000y320000
*506 xofiller!FILL1HPBWP!x444000y320000
*507 xofiller!FILL1HPBWP!x462000y320000
*508 xofiller!FILL1HPBWP!x464000y320000
*509 xofiller!FILL1HPBWP!x530000y320000
*510 xofiller!FILL1HPBWP!x532000y320000
*511 xofiller!FILL1HPBWP!x548000y320000
*512 xofiller!FILL1HPBWP!x562000y320000
*513 xofiller!FILL1HPBWP!x564000y320000
*514 xofiller!FILL1HPBWP!x598000y320000
*515 xofiller!FILL1HPBWP!x600000y320000
*516 xofiller!FILL1HPBWP!x114000y340000
*517 xofiller!FILL1HPBWP!x116000y340000
*518 xofiller!FILL1HPBWP!x222000y340000
*519 xofiller!FILL1HPBWP!x248000y340000
*520 xofiller!FILL1HPBWP!x318000y340000
*521 xofiller!FILL1HPBWP!x382000y340000
*522 xofiller!FILL1HPBWP!x384000y340000
*523 xofiller!FILL1HPBWP!x448000y340000
*524 xofiller!FILL1HPBWP!x484000y340000
*525 xofiller!FILL1HPBWP!x486000y340000
*526 xofiller!FILL1HPBWP!x522000y340000
*527 xofiller!FILL1HPBWP!x602000y340000
*528 xofiller!FILL1HPBWP!x604000y340000
*529 xofiller!FILL1HPBWP!x612000y340000
*530 xofiller!FILL1HPBWP!x178000y360000
*531 xofiller!FILL1HPBWP!x180000y360000
*532 xofiller!FILL1HPBWP!x242000y360000
*533 xofiller!FILL1HPBWP!x244000y360000
*534 xofiller!FILL1HPBWP!x330000y360000
*535 xofiller!FILL1HPBWP!x332000y360000
*536 xofiller!FILL1HPBWP!x418000y360000
*537 xofiller!FILL1HPBWP!x420000y360000
*538 xofiller!FILL1HPBWP!x444000y360000
*539 xofiller!FILL1HPBWP!x446000y360000
*540 xofiller!FILL1HPBWP!x502000y360000
*541 xofiller!FILL1HPBWP!x562000y360000
*542 xofiller!FILL1HPBWP!x564000y360000
*543 xofiller!FILL1HPBWP!x590000y360000
*544 xofiller!FILL1HPBWP!x592000y360000
*545 xofiller!FILL1HPBWP!x122000y380000
*546 xofiller!FILL1HPBWP!x332000y380000
*547 xofiller!FILL1HPBWP!x392000y380000
*548 xofiller!FILL1HPBWP!x598000y380000
*549 xofiller!FILL1HPBWP!x612000y380000
*550 xofiller!FILL1HPBWP!x246000y400000
*551 xofiller!FILL1HPBWP!x248000y400000
*552 xofiller!FILL1HPBWP!x334000y400000
*553 xofiller!FILL1HPBWP!x454000y400000
*554 xofiller!FILL1HPBWP!x546000y400000
*555 xofiller!FILL1HPBWP!x548000y400000
*556 xofiller!FILL1HPBWP!x610000y400000
*557 xofiller!FILL1HPBWP!x612000y400000
*558 tapfiller!TAPCELLHPBWP!0
*559 tapfiller!TAPCELLHPBWP!1
*560 tapfiller!TAPCELLHPBWP!2
*561 tapfiller!TAPCELLHPBWP!3
*562 tapfiller!TAPCELLHPBWP!4
*563 tapfiller!TAPCELLHPBWP!5
*564 tapfiller!TAPCELLHPBWP!6
*565 boundarycell!DCAPHPBWP!0
*566 boundarycell!DCAPHPBWP!1
*567 boundarycell!DCAPHPBWP!2
*568 boundarycell!DCAPHPBWP!3
*569 boundarycell!DCAPHPBWP!4
*570 boundarycell!DCAPHPBWP!5
*571 boundarycell!DCAPHPBWP!6
*572 boundarycell!DCAPHPBWP!7
*573 boundarycell!DCAPHPBWP!8
*574 boundarycell!DCAPHPBWP!9
*575 boundarycell!DCAPHPBWP!10
*576 boundarycell!DCAPHPBWP!11
*577 boundarycell!DCAPHPBWP!12
*578 boundarycell!DCAPHPBWP!13
*579 boundarycell!DCAPHPBWP!14
*580 boundarycell!DCAPHPBWP!15
*581 boundarycell!DCAPHPBWP!16
*582 boundarycell!DCAPHPBWP!17
*583 boundarycell!DCAPHPBWP!18
*584 boundarycell!DCAPHPBWP!19
*585 boundarycell!DCAPHPBWP!20
*586 boundarycell!DCAPHPBWP!21
*587 boundarycell!DCAPHPBWP!22
*588 boundarycell!DCAPHPBWP!23
*589 boundarycell!DCAPHPBWP!24
*590 boundarycell!DCAPHPBWP!25
*591 boundarycell!DCAPHPBWP!26
*592 boundarycell!DCAPHPBWP!27
*593 boundarycell!DCAPHPBWP!28
*594 boundarycell!DCAPHPBWP!29
*595 boundarycell!DCAPHPBWP!30
*596 boundarycell!DCAPHPBWP!31
*597 boundarycell!DCAPHPBWP!32
*598 boundarycell!DCAPHPBWP!33
*599 boundarycell!DCAPHPBWP!34
*600 boundarycell!DCAPHPBWP!35
*601 boundarycell!DCAPHPBWP!36
*602 boundarycell!DCAPHPBWP!37
*603 boundarycell!DCAPHPBWP!38
*604 boundarycell!DCAPHPBWP!39
*605 boundarycell!DCAPHPBWP!40
*606 boundarycell!DCAPHPBWP!41
*607 boundarycell!DCAPHPBWP!42
*608 boundarycell!DCAPHPBWP!43
*609 boundarycell!DCAPHPBWP!44
*610 boundarycell!DCAPHPBWP!45
*611 boundarycell!DCAPHPBWP!46
*612 boundarycell!DCAPHPBWP!47
*613 boundarycell!DCAPHPBWP!48
*614 boundarycell!DCAPHPBWP!49
*615 boundarycell!DCAPHPBWP!50
*616 boundarycell!DCAPHPBWP!51
*617 boundarycell!DCAPHPBWP!52
*618 boundarycell!DCAPHPBWP!53
*619 boundarycell!DCAPHPBWP!54
*620 boundarycell!DCAPHPBWP!55
*621 boundarycell!DCAPHPBWP!56
*622 boundarycell!DCAPHPBWP!57
*623 boundarycell!DCAPHPBWP!58
*624 boundarycell!DCAPHPBWP!59
*625 boundarycell!DCAPHPBWP!60
*626 boundarycell!DCAPHPBWP!61
*627 boundarycell!DCAPHPBWP!62
*628 boundarycell!DCAPHPBWP!63
*629 boundarycell!DCAPHPBWP!64
*630 boundarycell!DCAPHPBWP!65
*631 boundarycell!DCAPHPBWP!66
*632 boundarycell!DCAPHPBWP!67
*633 boundarycell!DCAPHPBWP!68
*634 boundarycell!DCAPHPBWP!69
*635 boundarycell!DCAPHPBWP!70
*636 boundarycell!DCAPHPBWP!71
*637 boundarycell!DCAPHPBWP!72
*638 boundarycell!DCAPHPBWP!73
*639 boundarycell!DCAPHPBWP!74
*640 boundarycell!DCAPHPBWP!75
*641 boundarycell!DCAPHPBWP!76
*642 boundarycell!DCAPHPBWP!77
*643 boundarycell!DCAPHPBWP!78
*644 boundarycell!DCAPHPBWP!79
*645 boundarycell!DCAPHPBWP!80
*646 boundarycell!DCAPHPBWP!81
*647 boundarycell!DCAPHPBWP!82
*648 boundarycell!DCAPHPBWP!83
*649 boundarycell!DCAPHPBWP!84
*650 boundarycell!DCAPHPBWP!85
*651 boundarycell!DCAPHPBWP!86
*652 boundarycell!DCAPHPBWP!87
*653 boundarycell!DCAPHPBWP!88
*654 boundarycell!DCAPHPBWP!89
*655 boundarycell!DCAPHPBWP!90
*656 boundarycell!DCAPHPBWP!91
*657 boundarycell!DCAPHPBWP!92
*658 boundarycell!DCAPHPBWP!93
*659 boundarycell!DCAPHPBWP!94
*660 boundarycell!DCAPHPBWP!95
*661 boundarycell!DCAPHPBWP!96
*662 boundarycell!DCAPHPBWP!97
*663 boundarycell!DCAPHPBWP!98
*664 boundarycell!DCAPHPBWP!99
*665 boundarycell!DCAPHPBWP!100
*666 boundarycell!DCAPHPBWP!101
*667 boundarycell!DCAPHPBWP!102
*668 boundarycell!DCAPHPBWP!103
*669 boundarycell!DCAPHPBWP!104
*670 boundarycell!DCAPHPBWP!105
*671 boundarycell!DCAPHPBWP!106
*672 boundarycell!DCAPHPBWP!107
*673 boundarycell!DCAPHPBWP!108
*674 boundarycell!DCAPHPBWP!109
*675 boundarycell!DCAPHPBWP!110
*676 boundarycell!DCAPHPBWP!111
*677 boundarycell!DCAPHPBWP!112
*678 boundarycell!DCAPHPBWP!113
*679 boundarycell!DCAPHPBWP!114
*680 boundarycell!DCAPHPBWP!115
*681 boundarycell!DCAPHPBWP!116
*682 boundarycell!DCAPHPBWP!117
*683 boundarycell!DCAPHPBWP!118
*684 boundarycell!DCAPHPBWP!119
*685 boundarycell!DCAPHPBWP!120
*686 boundarycell!DCAPHPBWP!121
*687 boundarycell!DCAPHPBWP!122
*688 boundarycell!DCAPHPBWP!123
*689 boundarycell!DCAPHPBWP!124
*690 boundarycell!DCAPHPBWP!125
*691 boundarycell!DCAPHPBWP!126
*692 boundarycell!DCAPHPBWP!127
*693 boundarycell!DCAPHPBWP!128
*694 boundarycell!DCAPHPBWP!129
*695 boundarycell!DCAPHPBWP!130
*696 boundarycell!DCAPHPBWP!131
*697 boundarycell!DCAPHPBWP!132
*698 boundarycell!DCAPHPBWP!133
*699 boundarycell!DCAPHPBWP!134
*700 boundarycell!DCAPHPBWP!135
*701 boundarycell!DCAPHPBWP!136
*702 boundarycell!DCAPHPBWP!137
*703 boundarycell!DCAPHPBWP!138
*704 boundarycell!DCAPHPBWP!139
*705 boundarycell!DCAPHPBWP!140
*706 boundarycell!DCAPHPBWP!141
*707 boundarycell!DCAPHPBWP!142
*708 boundarycell!DCAPHPBWP!143
*709 boundarycell!DCAPHPBWP!144
*710 boundarycell!DCAPHPBWP!145
*711 boundarycell!DCAPHPBWP!146
*712 boundarycell!DCAPHPBWP!147
*713 boundarycell!DCAPHPBWP!148
*714 boundarycell!DCAPHPBWP!149
*715 boundarycell!DCAPHPBWP!150
*716 boundarycell!DCAPHPBWP!151
*717 boundarycell!DCAPHPBWP!152
*718 boundarycell!DCAPHPBWP!153
*719 boundarycell!DCAPHPBWP!154
*720 boundarycell!DCAPHPBWP!155
*721 boundarycell!DCAPHPBWP!156
*722 boundarycell!DCAPHPBWP!157
*723 boundarycell!DCAPHPBWP!158
*724 boundarycell!DCAPHPBWP!159
*725 boundarycell!DCAPHPBWP!160
*726 boundarycell!DCAPHPBWP!161
*727 boundarycell!DCAPHPBWP!162
*728 boundarycell!DCAPHPBWP!163
*729 boundarycell!DCAPHPBWP!164
*730 boundarycell!DCAPHPBWP!165
*731 boundarycell!DCAPHPBWP!166
*732 boundarycell!DCAPHPBWP!167
*733 boundarycell!DCAPHPBWP!168
*734 boundarycell!DCAPHPBWP!169
*735 boundarycell!DCAPHPBWP!170
*736 boundarycell!DCAPHPBWP!171
*737 boundarycell!DCAPHPBWP!172
*738 boundarycell!DCAPHPBWP!173
*739 boundarycell!DCAPHPBWP!174
*740 boundarycell!DCAPHPBWP!175
*741 boundarycell!DCAPHPBWP!176
*742 boundarycell!DCAPHPBWP!177
*743 boundarycell!DCAPHPBWP!178
*744 boundarycell!DCAPHPBWP!179
*745 boundarycell!DCAPHPBWP!180
*746 boundarycell!DCAPHPBWP!181
*747 boundarycell!DCAPHPBWP!182
*748 boundarycell!DCAPHPBWP!183
*749 boundarycell!DCAPHPBWP!184
*750 boundarycell!DCAPHPBWP!185
*751 boundarycell!DCAPHPBWP!186
*752 boundarycell!DCAPHPBWP!187
*753 boundarycell!DCAPHPBWP!188
*754 boundarycell!DCAPHPBWP!189
*755 boundarycell!DCAPHPBWP!190
*756 boundarycell!DCAPHPBWP!191
*757 boundarycell!DCAPHPBWP!192
*758 boundarycell!DCAPHPBWP!193
*759 boundarycell!DCAPHPBWP!194
*760 boundarycell!DCAPHPBWP!195
*761 boundarycell!DCAPHPBWP!196
*762 boundarycell!DCAPHPBWP!197
*763 boundarycell!DCAPHPBWP!198
*764 boundarycell!DCAPHPBWP!199
*765 boundarycell!DCAPHPBWP!200
*766 boundarycell!DCAPHPBWP!201
*767 tapfiller!TAPCELLHPBWP!7
*768 tapfiller!TAPCELLHPBWP!8
*769 tapfiller!TAPCELLHPBWP!9
*770 tapfiller!TAPCELLHPBWP!10
*771 tapfiller!TAPCELLHPBWP!11
*772 tapfiller!TAPCELLHPBWP!12
*773 tapfiller!TAPCELLHPBWP!13
*774 tapfiller!TAPCELLHPBWP!14
*775 tapfiller!TAPCELLHPBWP!15
*776 tapfiller!TAPCELLHPBWP!16
*777 tapfiller!TAPCELLHPBWP!17
*778 tapfiller!TAPCELLHPBWP!18
*779 phfnn_56
*780 ctmn_512
*781 ctmn_577
*782 ctmn_616
*783 ctmn_587
*784 phfnn_57
*785 ctmn_609
*786 ctmn_556
*787 N7
*788 N8
*789 p3[3]
*790 place_optHFSNET_0
*791 N9
*792 p3[2]
*793 N10
*794 p3[1]
*795 N11
*796 p3[0]
*797 N12
*798 reg_data[15]
*799 N13
*800 reg_data[14]
*801 N14
*802 reg_data[13]
*803 N15
*804 reg_data[12]
*805 N16
*806 reg_data[11]
*807 N17
*808 reg_data[10]
*809 N18
*810 reg_data[9]
*811 N19
*812 reg_data[8]
*813 N20
*814 reg_data[7]
*815 N21
*816 reg_data[6]
*817 N22
*818 reg_data[5]
*819 N23
*820 reg_data[4]
*821 N24
*822 reg_data[3]
*823 N25
*824 reg_data[2]
*825 N26
*826 reg_data[1]
*827 N27
*828 reg_data[0]
*829 N28
*830 p1[3]
*831 N29
*832 p1[2]
*833 N30
*834 p1[1]
*835 N31
*836 p1[0]
*837 N32
*838 p2[3]
*839 N33
*840 p2[2]
*841 N34
*842 p2[1]
*843 N35
*844 p2[0]
*845 ctmn_612
*846 ctmn_567
*847 ctmn_614
*848 ctmn_603
*849 phfnn_59
*850 ctmn_527
*851 ctmn_604
*852 ctmn_597
*853 ctmn_615
*854 ctmn_534
*855 ctmn_598
*856 ctmn_613
*857 ctmn_592
*858 ctmn_588
*859 ctmn_518
*860 ctmn_610
*861 ctmn_520
*862 ctmn_611
*863 ctmn_523
*864 ctmn_522
*865 ctmn_524
*866 ctmn_525
*867 ctmn_578
*868 ctmn_526
*869 ctmn_579
*870 phfnn_60
*871 ctmn_528
*872 ctmn_606
*873 ctmn_530
*874 ctmn_529
*875 ctmn_531
*876 ctmn_532
*877 ctmn_568
*878 ctmn_533
*879 ctmn_569
*880 ctmn_599
*881 ctmn_535
*882 ctmn_600
*883 ctmn_557
*884 ctmn_536
*885 ctmn_558
*886 ctmn_593
*887 phfnn_61
*888 ctmn_594
*889 ctmn_559
*890 ctmn_570
*891 ctmn_580
*892 ctmn_589
*893 ctmn_590
*894 ctmn_595
*895 ctmn_601
*896 phfnn_62
*897 ctmn_515
*898 ctmn_514
*899 ctmn_516
*900 ctmn_517
*901 ctmn_519
*902 ctmn_537
*903 phfnn_64
*904 ctmn_521
*905 phfnn_19
*906 ctmn_560
*907 ctmn_561
*908 ctmn_562
*909 ctmn_602
*910 ctmn_571
*911 ctmn_572
*912 ctmn_573
*913 ctmn_581
*914 ctmn_582
*915 ctmn_583
*916 ctmn_591
*917 ctmn_596
*918 ctmn_608
*919 phfnn_65
*920 tmp_net43
*921 ctmn_543
*922 ctmn_544
*923 phfnn_66
*924 ctmn_546
*925 ctmn_547
*926 ctmn_548
*927 ctmn_549
*928 ctmn_550
*929 ctmn_551
*930 ctmn_552
*931 ctmn_553
*932 ctmn_554
*933 ctmn_555
*934 ctmn_563
*935 ctmn_564
*936 ctmn_565
*937 ctmn_566
*938 ctmn_574
*939 ctmn_575
*940 ctmn_576
*941 ctmn_465
*942 ctmn_466
*943 ctmn_467
*944 ctmn_469
*945 ctmn_470
*946 ctmn_471
*947 ctmn_473
*948 ctmn_474
*949 ctmn_475
*950 ctmn_476
*951 ctmn_477
*952 ctmn_478
*953 optlc_net_81
*954 ctmn_480
*955 ctmn_481
*956 ctmn_482
*957 optlc_net_82
*958 ctmn_484
*959 ctmn_485
*960 ctmn_486
*961 ctmn_487
*962 ctmn_488
*963 ctmn_489
*964 ctmn_490
*965 ctmn_491
*966 ctmn_492
*967 ctmn_493
*968 tmp_net44
*969 ctmn_495
*970 optlc_net_83
*971 ctmn_497
*972 ctmn_498
*973 ctmn_499
*974 ctmn_500
*975 ctmn_501
*976 ctmn_502
*977 tmp_net32
*978 ctmn_504
*979 ctmn_505
*980 ctmn_506
*981 tmp_net33
*982 tmp_net34
*983 optlc_net_84
*984 ctmn_508
*985 ctmn_509
*986 ctmn_510
*987 ctmn_584
*988 ctmn_585
*989 ctmn_586
*990 clk_clock_gate_reg_data_reg

*PORTS

*1 I *C 71.740 50.600
*2 I *C 71.740 48.000
*3 I *C 71.740 45.400
*4 I *C 71.740 42.800
*5 I *C 71.740 40.200
*6 I *C 71.740 37.600
*7 I *C 71.740 35.200
*8 I *C 71.740 32.400
*9 I *C 71.740 29.800
*10 I *C 71.740 27.200
*11 I *C 71.740 24.600
*12 I *C 71.740 22.000
*13 I *C 71.740 19.400
*14 I *C 71.740 16.800
*15 I *C 71.740 22.200
*16 I *C 71.740 18.000
*17 I *C 71.740 13.800
*18 I *C 71.740 9.600
*19 I *C 71.740 5.400
*20 I *C 71.740 1.200
*21 I *C 71.740 26.600
*22 I *C 71.740 30.800
*23 I *C 71.740 51.800
*24 O *C 71.740 47.600
*25 O *C 71.740 43.400
*26 O *C 71.740 39.200
*27 O *C 71.740 35.000
*28 O *C 0.260 51.600
*29 O *C 0.260 47.400
*30 O *C 0.260 43.200
*31 O *C 0.260 39.000
*32 O *C 0.260 34.800
*33 O *C 0.260 30.600
*34 O *C 0.260 26.400
*35 O *C 0.260 22.200
*36 O *C 0.260 18.000
*37 O *C 0.260 13.800
*38 O *C 0.260 9.600
*39 O *C 0.260 5.400
*40 O *C 0.260 1.200
*41 I *C 37.500 27.000
*42 I *C 34.500 27.000

*D_NET *6 0.002933408 //LENGTH 20.260 LUMPCC 0 DR

*CONN
*P *6 I *L 0 *C 71.530 37.600
*I *88:I I *L 0.000898 *C 60.650 35.087
*I *162:A1 I *L 0.001036 *C 60.245 39.000
*I *206:A1 I *L 0.000775 *C 59.445 39.000
*N *6:4 *C 59.400 39.000
*N *6:5 *C 59.400 39.000
*N *6:6 *C 60.060 39.000
*N *6:7 *C 60.200 39.000
*N *6:8 *C 60.200 38.770
*N *6:9 *C 60.200 38.700
*N *6:10 *C 60.100 38.800
*N *6:11 *C 60.100 38.800
*N *6:12 *C 60.170 38.800
*N *6:13 *C 60.800 38.900
*N *6:14 *C 60.800 38.830
*N *6:15 *C 60.600 35.055
*N *6:16 *C 60.600 35.055
*N *6:17 *C 60.700 35.000
*N *6:18 *C 60.700 35.000
*N *6:19 *C 60.800 35.100
*N *6:20 *C 60.800 35.170
*N *6:21 *C 60.800 37.300
*N *6:22 *C 60.800 37.300
*N *6:23 *C 62.800 37.300
*N *6:24 *C 62.800 37.370
*N *6:25 *C 62.900 37.600
*N *6:26 *C 62.970 37.600

*CAP
0 *6 0.0004258357
1 *88:I 4.209176e-05
2 *162:A1 3.25899e-05
3 *206:A1 1.254237e-05
4 *6:4 1.254237e-05
5 *6:5 7.186704e-05
6 *6:6 3.25899e-05
7 *6:7 0.000113979
8 *6:8 4.211198e-05
9 *6:9 5.570942e-05
10 *6:10 3.969552e-05
11 *6:11 2.955931e-05
12 *6:12 7.339197e-05
13 *6:13 9.583965e-05
14 *6:14 0.0001667762
15 *6:15 4.209176e-05
16 *6:16 5.182994e-05
17 *6:17 6.858815e-05
18 *6:18 3.617231e-05
19 *6:19 3.694675e-05
20 *6:20 0.0001614337
21 *6:21 0.0003449712
22 *6:22 0.0002171972
23 *6:23 0.0002150228
24 *6:24 3.057277e-05
25 *6:25 5.56233e-05
26 *6:26 0.0004258357

*RES
0 *6 *6:26 0.006870013
1 *6:21 *6:20 0.001824137
2 *6:21 *6:14 0.001486967
3 *6:22 *6:21 0.0002367922
4 *6:24 *6:23 0.0002367922
5 *6:23 *6:22 0.00199652
6 *6:26 *6:25 0.0002367922
7 *6:25 *6:24 0.0001839758
8 *6:19 *6:18 8.038933e-05
9 *6:20 *6:19 0.0002367922
10 *6:17 *6:16 4.771076e-05
11 *6:18 *6:17 0.0002367922
12 *6:15 *88:I 0.0002147583
13 *6:16 *6:15 0.0002367922
14 *6:14 *6:13 0.0002367922
15 *6:13 *6:12 0.0005654519
16 *6:11 *6:10 0.0002367922
17 *6:12 *6:11 0.0002367922
18 *6:10 *6:9 8.172976e-05
19 *6:8 *6:7 0.0001857392
20 *6:9 *6:8 0.0002367922
21 *6:6 *162:A1 0.0001896542
22 *6:7 *6:6 0.0002367922
23 *6:7 *6:5 0.0006561699
24 *6:4 *206:A1 4.279667e-05
25 *6:5 *6:4 0.0004735845

*END

*D_NET *7 0.007820973 //LENGTH 44.960 LUMPCC 0 DR

*CONN
*P *7 I *L 0 *C 71.530 35.200
*I *51:A1 I *L 0.001041 *C 49.045 29.000
*I *49:I I *L 0.000898 *C 56.650 33.105
*I *52:A1 I *L 0.000922 *C 60.445 33.000
*I *125:B1 I *L 0.001027 *C 59.510 37.000
*I *206:A2 I *L 0.000714 *C 59.115 39.265
*N *7:6 *C 60.750 33.200
*N *7:7 *C 59.200 39.330
*N *7:8 *C 59.200 39.330
*N *7:9 *C 59.200 38.600
*N *7:10 *C 59.600 38.600
*N *7:11 *C 59.500 37.000
*N *7:12 *C 59.600 34.000
*N *7:13 *C 60.400 34.000
*N *7:14 *C 60.400 33.100