*SPEF "1481-1998"
*DESIGN "top"
*DATE "Sun May 25 01:29:32 2025"
*VENDOR "Synopsys, Inc."
*PROGRAM "fc /mnt/vol_synopsys2023/synopsys/fusioncompiler/U-2022.12-SP6/linux64/nwtn/bin/dgcom_exec"
*VERSION "U-2022.12-SP6 Aug 25, 2023"
*DESIGN_FLOW "ICC2 SPEF DR"
*DIVIDER /
*DELIMITER :
*BUS_DELIMITER [ ]
*T_UNIT 1 NS
*C_UNIT 1 PF
*R_UNIT 1 KOHM
*L_UNIT 1 HENRY

// XY_UNIT 1 UM
// PARASITIC_TECH RC_Worst at 125.000 degree

*NAME_MAP
*1 clk
*2 rst
*3 enable
*4 load
*5 serial_in
*6 mode[1]
*7 mode[0]
*8 parallel_in[31]
*9 parallel_in[30]
*10 parallel_in[29]
*11 parallel_in[28]
*12 parallel_in[27]
*13 parallel_in[26]
*14 parallel_in[25]
*15 parallel_in[24]
*16 parallel_in[23]
*17 parallel_in[22]
*18 parallel_in[21]
*19 parallel_in[20]
*20 parallel_in[19]
*21 parallel_in[18]
*22 parallel_in[17]
*23 parallel_in[16]
*24 parallel_in[15]
*25 parallel_in[14]
*26 parallel_in[13]
*27 parallel_in[12]
*28 parallel_in[11]
*29 parallel_in[10]
*30 parallel_in[9]
*31 parallel_in[8]
*32 parallel_in[7]
*33 parallel_in[6]
*34 parallel_in[5]
*35 parallel_in[4]
*36 parallel_in[3]
*37 parallel_in[2]
*38 parallel_in[1]
*39 parallel_in[0]
*40 serial_out
*41 parallel_out[31]
*42 parallel_out[30]
*43 parallel_out[29]
*44 parallel_out[28]
*45 parallel_out[27]
*46 parallel_out[26]
*47 parallel_out[25]
*48 parallel_out[24]
*49 parallel_out[23]
*50 parallel_out[22]
*51 parallel_out[21]
*52 parallel_out[20]
*53 parallel_out[19]
*54 parallel_out[18]
*55 parallel_out[17]
*56 parallel_out[16]
*57 parallel_out[15]
*58 parallel_out[14]
*59 parallel_out[13]
*60 parallel_out[12]
*61 parallel_out[11]
*62 parallel_out[10]
*63 parallel_out[9]
*64 parallel_out[8]
*65 parallel_out[7]
*66 parallel_out[6]
*67 parallel_out[5]
*68 parallel_out[4]
*69 parallel_out[3]
*70 parallel_out[2]
*71 parallel_out[1]
*72 parallel_out[0]
*73 VDD
*74 VSS
*75 ctmi_1105
*76 reg_data_reg[31]
*77 reg_data_reg[30]
*78 p3_reg[6]
*79 p3_reg[5]
*80 p3_reg[4]
*81 p3_reg[3]
*82 p3_reg[2]
*83 p3_reg[1]
*84 p3_reg[0]
*85 place_optctmTdsLR_1_3073
*86 ctmi_57
*87 ctmi_58
*88 ctmi_59
*89 ctmi_60
*90 ctmi_61
*91 ctmi_62
*92 ctmi_63
*93 ctmi_64
*94 phfnr_buf_184
*95 ctmi_66
*96 ctmi_67
*97 place_optHFSBUF_882_202
*98 ctmi_1284
*99 reg_data_reg[29]
*100 reg_data_reg[28]
*101 reg_data_reg[27]
*102 reg_data_reg[26]
*103 reg_data_reg[25]
*104 reg_data_reg[24]
*105 p1_reg[7]
*106 p1_reg[6]
*107 p1_reg[5]
*108 p1_reg[4]
*109 p1_reg[2]
*110 p1_reg[1]
*111 p1_reg[3]
*112 reg_data_reg[22]
*113 p1_reg[0]
*114 p2_reg[7]
*115 p2_reg[6]
*116 ctmi_1368
*117 ctmi_1369
*118 ctmi_1370
*119 reg_data_reg[19]
*120 reg_data_reg[18]
*121 reg_data_reg[17]
*122 reg_data_reg[16]
*123 reg_data_reg[15]
*124 ctmi_1253
*125 reg_data_reg[14]
*126 reg_data_reg[13]
*127 reg_data_reg[12]
*128 reg_data_reg[11]
*129 reg_data_reg[10]
*130 reg_data_reg[9]
*131 reg_data_reg[8]
*132 reg_data_reg[7]
*133 reg_data_reg[6]
*134 reg_data_reg[5]
*135 reg_data_reg[4]
*136 reg_data_reg[3]
*137 ctmi_1264
*138 reg_data_reg[2]
*139 reg_data_reg[1]
*140 reg_data_reg[0]
*141 ctmi_1275
*142 ctmi_1286
*143 ctmi_1297
*144 ctmi_1304
*145 ctmi_1367
*146 ctmi_1311
*147 ctmi_1318
*148 ctmi_1324
*149 ctmi_1330
*150 ctmi_1337
*151 ctmi_1344
*152 place_optctmTdsLR_2_3072_roptpi_3080
*153 place_optoptlc_3090
*154 place_optoptlc_3091
*155 place_optoptlc_3092
*156 place_optoptlc_3093
*157 place_optctmTdsLR_2_3074
*158 place_optctmTdsLR_3_3075
*159 ctmi_1354
*160 reg_data_reg[23]
*161 p2_reg[5]
*162 p2_reg[4]
*163 p2_reg[3]
*164 p2_reg[2]
*165 p2_reg[1]
*166 p2_reg[0]
*167 ctmi_1342
*168 ctmi_1128
*169 ctmi_1262
*170 place_optctmTdsLR_1_3067
*171 place_optctmTdsLR_2_3068
*172 ctmi_1328
*173 ctmi_1273
*174 ctmi_1335
*175 ctmi_1140
*176 ctmi_1240
*177 ctmi_1316
*178 ctmi_1174
*179 ctmi_1251
*180 ctmi_1322
*181 ctmi_1162
*182 ctmi_1229
*183 ctmi_1309
*184 ctmi_1186
*185 ctmi_1218
*186 ctmi_1302
*187 ctmi_1198
*188 ctmi_1295
*189 ctmi_1348
*190 ctmi_1116
*191 ctmi_1111
*192 ctmi_1109
*193 ctmi_1112
*194 ctmi_1296
*195 ctmi_1114
*196 place_optHFSINV_5_198
*197 ctmi_1117
*198 ctmi_1122
*199 ctmi_1119
*200 phfnr_buf_187
*201 ctmi_69
*202 ctmi_1285
*203 ctmi_1126
*204 ctmi_1343
*205 ctmi_1129
*206 ctmi_1134
*207 ctmi_1131
*208 ctmi_1274
*209 ctmi_1138
*210 ctmi_1336
*211 ctmi_1141
*212 ctmi_1263
*213 ctmi_1145
*214 ctmi_1361
*215 ctmi_1147
*216 ctmi_1329
*217 ctmi_1150
*218 ctmi_1156
*219 ctmi_1154
*220 phfnr_buf_188
*221 ctmi_1252
*222 ctmi_1158
*223 ctmi_1323
*224 ctmi_1163
*225 ctmi_1168
*226 ctmi_1165
*227 ctmi_70
*228 ctmi_1241
*229 ctmi_1172
*230 ctmi_1317
*231 ctmi_1175
*232 ctmi_1180
*233 ctmi_1177
*234 ctmi_71
*235 ctmi_1230
*236 ctmi_1184
*237 ctmi_1310
*238 ctmi_1187
*239 ctmi_1192
*240 ctmi_1189
*241 ctmi_1219
*242 ctmi_1196
*243 ctmi_1303
*244 phfnr_buf_189
*245 ctmi_1220
*246 reg_data_reg[21]
*247 ctmi_1371
*248 ctmi_1372
*249 ctmi_1373
*250 ctmi_1374
*251 ctmi_1375
*252 ctmi_1376
*253 ctmi_1377
*254 ctmi_1378
*255 ctmi_1379
*256 ctmi_1231
*257 ctmi_1380
*258 ctmi_1381
*259 ctmi_1382
*260 ctmi_1383
*261 ctmi_1384
*262 ctmi_1385
*263 ctmi_1386
*264 ctmi_1387
*265 ctmi_1388
*266 ctmi_1389
*267 ctmi_1390
*268 ctmi_1391
*269 ctmi_1242
*270 ctmi_1392
*271 ctmi_1393
*272 ctmi_1394
*273 ctmi_1395
*274 ctmi_1396
*275 ctmi_1397
*276 reg_data_reg[20]
*277 ctmi_1366
*278 ctmi_1351
*279 ctmi_1356
*280 ctmi_1363
*281 place_optctmTdsLR_1_3078
*282 place_optctmTdsLR_2_3079
*283 ctmi_1106
*284 ctmi_1142
*285 phfnr_buf_190
*286 phfnr_buf_191
*287 phfnr_buf_192
*288 ctmi_1110
*289 phfnr_buf_193
*290 phfnr_buf_194
*291 ctmi_1118
*292 phfnr_buf_195
*293 place_optctmTdsLR_1_136
*294 phfnr_buf_183
*295 ctmi_1298
*296 ctmi_1353
*297 ctmi_1124
*298 ctmi_1287
*299 ctmi_1345
*300 ctmi_1136
*301 ctmi_1276
*302 ctmi_1338
*303 ctmi_1265
*304 ctmi_1365
*305 ctmi_1331
*306 ctmi_72
*307 ctmi_1254
*308 ctmi_1325
*309 ctmi_1170
*310 ctmi_1243
*311 ctmi_1319
*312 ctmi_1182
*313 ctmi_1232
*314 ctmi_1312
*315 ctmi_1194
*316 ctmi_1221
*317 ctmi_1305
*318 ctmi_1346
*319 ctmi_1357
*320 ctmi_1358
*321 ctmi_1359
*322 ctmi_1355
*323 ctmi_1306
*324 ctmi_1313
*325 ctmi_1326
*326 ctmi_1320
*327 ctmi_1339
*328 ctmi_1125
*329 ctmi_1127
*330 ctmi_1130
*331 place_optHFSBUF_255_199
*332 place_optHFSINV_265_200
*333 ctmi_1137
*334 ctmi_1139
*335 ctmi_1143
*336 ctmi_1144
*337 ctmi_1146
*338 ctmi_1148
*339 ctmi_1149
*340 place_optHFSINV_278_201
*341 place_optHFSINV_3367_203
*342 place_optHFSBUF_3201_204
*343 ctmi_1155
*344 ctmi_1160
*345 ctmi_1164
*346 xofiller!DCAP16HPBWP!x106000y120000
*347 place_optctmTdsLR_1_134
*348 ctmi_1171
*349 ctmi_1173
*350 ctmi_1176
*351 ctmi_1183
*352 ctmi_1185
*353 ctmi_1188
*354 place_optctmTdsLR_1_135
*355 ctmi_1195
*356 ctmi_1197
*357 ctmi_1200
*358 ctmi_1307
*359 ctmi_1222
*360 ctmi_1223
*361 ctmi_1224
*362 ctmi_1314
*363 ctmi_1233
*364 ctmi_1234
*365 ctmi_1235
*366 xofiller!DCAP16HPBWP!x138000y120000
*367 ctmi_1244
*368 ctmi_1245
*369 ctmi_1246
*370 ctmi_1327
*371 ctmi_1255
*372 ctmi_1256
*373 ctmi_1257
*374 ctmi_1332
*375 ctmi_1266
*376 ctmi_1267
*377 ctmi_1268
*378 ctmi_1277
*379 ctmi_1278
*380 ctmi_1279
*381 ctmi_1347
*382 ctmi_1288
*383 ctmi_1289
*384 ctmi_1290
*385 ctmi_1299
*386 ctmi_1300
*387 ctmi_1301
*388 ctmi_1308
*389 ctmi_1315
*390 ctmi_1333
*391 ctmi_1334
*392 ctmi_1340
*393 ctmi_1341
*394 ctmi_1201
*395 ctmi_1225
*396 ctmi_1236
*397 ctmi_1247
*398 ctmi_1258
*399 ctmi_1269
*400 ctmi_1280
*401 ctmi_1291
*402 xofiller!DCAP16HPBWP!x170000y120000
*403 xofiller!DCAP16HPBWP!x202000y120000
*404 xofiller!DCAP4HPBWP!x234000y120000
*405 clock_optZCTSBUF_1313_2680
*406 clock_optZCTSBUF_1510_2681
*407 clock_optZCTSBUF_2246_2682
*408 place_optctmTdsLR_1_3065
*409 place_optctmTdsLR_2_3066
*410 ctmi_1207
*411 place_optctmTdsLR_1_3069
*412 place_optctmTdsLR_2_3070
*413 ctmi_1211
*414 ctmi_1213
*415 ctmi_1214
*416 ctmi_1215
*417 ctmi_1216
*418 ctmi_1217
*419 ctmi_1226
*420 ctmi_1227
*421 place_optctmTdsLR_1_3076
*422 ctmi_1237
*423 ctmi_1238
*424 place_optctmTdsLR_2_3077
*425 ctmi_1248
*426 ctmi_1249
*427 ctmi_1250
*428 ctmi_1259
*429 ctmi_1260
*430 ctmi_1261
*431 ctmi_1270
*432 ctmi_1271
*433 ctmi_1281
*434 ctmi_1008
*435 ctmi_1009
*436 ctmi_1010
*437 place_optoptlc_3094
*438 place_optoptlc_3095
*439 ctmi_73
*440 ctmi_1013
*441 ctmi_74
*442 place_optoptlc_3096
*443 ctmi_1017
*444 ctmi_1018
*445 xofiller!DCAP4HPBWP!x242000y120000
*446 xofiller!DCAP16HPBWP!x316000y120000
*447 xofiller!DCAP16HPBWP!x348000y120000
*448 ctmi_75
*449 ctmi_1021
*450 xofiller!DCAP16HPBWP!x380000y120000
*451 xofiller!DCAP16HPBWP!x412000y120000
*452 ctmi_77
*453 xofiller!DCAP16HPBWP!x444000y120000
*454 xofiller!DCAP16HPBWP!x476000y120000
*455 ctmi_1025
*456 ctmi_1026
*457 xofiller!DCAP16HPBWP!x508000y120000
*458 xofiller!DCAP4HPBWP!x540000y120000
*459 xofiller!DCAP16HPBWP!x554000y120000
*460 ctmi_1029
*461 xofiller!DCAP16HPBWP!x746000y120000
*462 ctmi_1033
*463 xofiller!DCAP16HPBWP!x778000y120000
*464 xofiller!DCAP4HPBWP!x810000y120000
*465 xofiller!DCAPHPBWP!x818000y120000
*466 ctmi_1035
*467 xofiller!DCAP16HPBWP!x106000y140000
*468 ctmi_81
*469 ctmi_1037
*470 xofiller!DCAP16HPBWP!x138000y140000
*471 ctmi_1040
*472 xofiller!DCAPHPBWP!x244000y140000
*473 ctmi_83
*474 xofiller!DCAP4HPBWP!x254000y140000
*475 ctmi_1043
*476 ctmi_1044
*477 ctmi_1046
*478 ctmi_1047
*479 ctmi_84
*480 ctmi_1049
*481 ctmi_1050
*482 ctmi_85
*483 ctmi_1052
*484 ctmi_1053
*485 ctmi_86
*486 ctmi_1055
*487 ctmi_1056
*488 ctmi_1057
*489 xofiller!DCAP16HPBWP!x326000y140000
*490 xofiller!DCAP16HPBWP!x358000y140000
*491 xofiller!DCAP16HPBWP!x422000y140000
*492 ctmi_1060
*493 xofiller!DCAP16HPBWP!x454000y140000
*494 xofiller!DCAP16HPBWP!x486000y140000
*495 ctmi_88
*496 ctmi_1064
*497 ctmi_1065
*498 ctmi_89
*499 ctmi_1067
*500 ctmi_1068
*501 ctmi_90
*502 ctmi_1070
*503 ctmi_1071
*504 ctmi_1072
*505 xofiller!DCAP4HPBWP!x582000y140000
*506 xofiller!DCAP4HPBWP!x590000y140000
*507 xofiller!DCAP4HPBWP!x598000y140000
*508 xofiller!DCAP4HPBWP!x666000y140000
*509 ctmi_1075
*510 xofiller!DCAP4HPBWP!x816000y140000
*511 xofiller!DCAP16HPBWP!x106000y160000
*512 ctmi_1078
*513 ctmi_91
*514 ctmi_92
*515 xofiller!DCAP16HPBWP!x138000y160000
*516 ctmi_1082
*517 xofiller!DCAP4HPBWP!x198000y160000
*518 xofiller!DCAP4HPBWP!x222000y160000
*519 xofiller!DCAP4HPBWP!x288000y160000
*520 xofiller!DCAPHPBWP!x296000y160000
*521 ctmi_1085
*522 xofiller!DCAP16HPBWP!x308000y160000
*523 xofiller!DCAP4HPBWP!x340000y160000
*524 xofiller!DCAP4HPBWP!x348000y160000
*525 xofiller!DCAPHPBWP!x618000y160000
*526 xofiller!DCAP4HPBWP!x752000y160000
*527 xofiller!DCAP4HPBWP!x760000y160000
*528 xofiller!DCAP4HPBWP!x814000y160000
*529 xofiller!DCAP16HPBWP!x106000y180000
*530 xofiller!DCAP4HPBWP!x138000y180000
*531 ctmi_1093
*532 xofiller!DCAP4HPBWP!x212000y180000
*533 xofiller!DCAP4HPBWP!x364000y180000
*534 ctmi_1096
*535 ctmi_1097
*536 xofiller!DCAP4HPBWP!x450000y180000
*537 xofiller!DCAP4HPBWP!x458000y180000
*538 xofiller!DCAP4HPBWP!x586000y180000
*539 ctmi_1101
*540 xofiller!DCAPHPBWP!x594000y180000
*541 xofiller!DCAP16HPBWP!x648000y180000
*542 xofiller!DCAP4HPBWP!x680000y180000
*543 xofiller!DCAP4HPBWP!x688000y180000
*544 ctmi_1282
*545 xofiller!DCAP4HPBWP!x746000y180000
*546 ctmi_1292
*547 ctmi_1293
*548 ctmi_1294
*549 p3_reg[7]
*550 xofiller!DCAP4HPBWP!x778000y180000
*551 xofiller!DCAP4HPBWP!x786000y180000
*552 xofiller!DCAP4HPBWP!x808000y180000
*553 xofiller!DCAP4HPBWP!x816000y180000
*554 xofiller!DCAP16HPBWP!x106000y200000
*555 xofiller!DCAP4HPBWP!x332000y200000
*556 xofiller!DCAP4HPBWP!x442000y200000
*557 xofiller!DCAP4HPBWP!x476000y200000
*558 xofiller!DCAP16HPBWP!x506000y200000
*559 xofiller!DCAP4HPBWP!x538000y200000
*560 xofiller!DCAP4HPBWP!x810000y200000
*561 xofiller!DCAPHPBWP!x818000y200000
*562 xofiller!DCAP4HPBWP!x254000y220000
*563 xofiller!DCAP4HPBWP!x280000y220000
*564 xofiller!DCAP4HPBWP!x288000y220000
*565 xofiller!DCAP4HPBWP!x312000y220000
*566 xofiller!DCAP4HPBWP!x740000y220000
*567 xofiller!DCAP4HPBWP!x766000y220000
*568 xofiller!DCAP4HPBWP!x198000y240000
*569 xofiller!DCAP4HPBWP!x206000y240000
*570 xofiller!DCAPHPBWP!x310000y240000
*571 xofiller!DCAP4HPBWP!x370000y240000
*572 clock_gate_reg_data_reg
*573 xofiller!DCAP4HPBWP!x378000y240000
*574 xofiller!DCAP16HPBWP!x484000y240000
*575 xofiller!DCAP4HPBWP!x538000y240000
*576 xofiller!DCAP16HPBWP!x106000y260000
*577 xofiller!DCAP4HPBWP!x138000y260000
*578 xofiller!DCAP4HPBWP!x146000y260000
*579 xofiller!DCAP4HPBWP!x154000y260000
*580 xofiller!DCAPHPBWP!x244000y260000
*581 xofiller!DCAP4HPBWP!x254000y260000
*582 xofiller!DCAP4HPBWP!x262000y260000
*583 xofiller!DCAP4HPBWP!x328000y260000
*584 xofiller!DCAP4HPBWP!x336000y260000
*585 xofiller!DCAP4HPBWP!x456000y260000
*586 xofiller!DCAP4HPBWP!x464000y260000
*587 xofiller!DCAP4HPBWP!x472000y260000
*588 xofiller!DCAP16HPBWP!x560000y260000
*589 xofiller!DCAP4HPBWP!x592000y260000
*590 xofiller!DCAP4HPBWP!x600000y260000
*591 xofiller!DCAPHPBWP!x636000y260000
*592 xofiller!DCAP16HPBWP!x704000y260000
*593 xofiller!DCAP4HPBWP!x764000y260000
*594 xofiller!DCAP4HPBWP!x772000y260000
*595 xofiller!DCAPHPBWP!x800000y260000
*596 xofiller!DCAP4HPBWP!x278000y280000
*597 xofiller!DCAP4HPBWP!x286000y280000
*598 xofiller!DCAP4HPBWP!x440000y280000
*599 xofiller!DCAP4HPBWP!x448000y280000
*600 xofiller!DCAPHPBWP!x456000y280000
*601 xofiller!DCAPHPBWP!x544000y280000
*602 xofiller!DCAPHPBWP!x616000y280000
*603 xofiller!DCAPHPBWP!x692000y280000
*604 xofiller!DCAP4HPBWP!x740000y280000
*605 xofiller!DCAP4HPBWP!x106000y300000
*606 xofiller!DCAP16HPBWP!x218000y300000
*607 xofiller!DCAP4HPBWP!x268000y300000
*608 xofiller!DCAPHPBWP!x276000y300000
*609 xofiller!DCAP4HPBWP!x636000y300000
*610 xofiller!DCAP4HPBWP!x684000y300000
*611 xofiller!DCAP4HPBWP!x692000y300000
*612 xofiller!DCAP4HPBWP!x770000y300000
*613 xofiller!DCAP4HPBWP!x796000y300000
*614 xofiller!DCAP16HPBWP!x106000y320000
*615 xofiller!DCAP16HPBWP!x138000y320000
*616 xofiller!DCAP4HPBWP!x170000y320000
*617 xofiller!DCAP4HPBWP!x316000y320000
*618 xofiller!DCAP4HPBWP!x324000y320000
*619 xofiller!DCAP4HPBWP!x422000y320000
*620 xofiller!DCAP4HPBWP!x430000y320000
*621 xofiller!DCAP4HPBWP!x438000y320000
*622 xofiller!DCAPHPBWP!x528000y320000
*623 xofiller!DCAP4HPBWP!x554000y320000
*624 xofiller!DCAP4HPBWP!x562000y320000
*625 xofiller!DCAP4HPBWP!x752000y320000
*626 xofiller!DCAP16HPBWP!x106000y340000
*627 xofiller!DCAP4HPBWP!x336000y340000
*628 xofiller!DCAP4HPBWP!x440000y340000
*629 xofiller!DCAP4HPBWP!x448000y340000
*630 xofiller!DCAP4HPBWP!x584000y340000
*631 xofiller!DCAP4HPBWP!x616000y340000
*632 xofiller!DCAP4HPBWP!x786000y340000
*633 xofiller!DCAP4HPBWP!x106000y360000
*634 xofiller!DCAP4HPBWP!x114000y360000
*635 xofiller!DCAP4HPBWP!x268000y360000
*636 xofiller!DCAPHPBWP!x344000y360000
*637 xofiller!DCAP16HPBWP!x366000y360000
*638 xofiller!DCAP4HPBWP!x398000y360000
*639 xofiller!DCAP4HPBWP!x430000y360000
*640 xofiller!DCAP4HPBWP!x474000y360000
*641 xofiller!DCAP4HPBWP!x502000y360000
*642 xofiller!DCAPHPBWP!x510000y360000
*643 xofiller!DCAP4HPBWP!x540000y360000
*644 xofiller!DCAP4HPBWP!x776000y360000
*645 xofiller!DCAP16HPBWP!x106000y380000
*646 xofiller!DCAP16HPBWP!x138000y380000
*647 xofiller!DCAP4HPBWP!x192000y380000
*648 xofiller!DCAP4HPBWP!x462000y380000
*649 xofiller!DCAPHPBWP!x470000y380000
*650 xofiller!DCAP4HPBWP!x554000y380000
*651 xofiller!DCAP4HPBWP!x562000y380000
*652 xofiller!DCAP4HPBWP!x588000y380000
*653 xofiller!DCAP4HPBWP!x596000y380000
*654 xofiller!DCAP4HPBWP!x674000y380000
*655 xofiller!DCAP16HPBWP!x704000y380000
*656 xofiller!DCAP4HPBWP!x736000y380000
*657 xofiller!DCAP4HPBWP!x744000y380000
*658 xofiller!DCAP4HPBWP!x106000y400000
*659 xofiller!DCAP4HPBWP!x188000y400000
*660 xofiller!DCAP4HPBWP!x230000y400000
*661 xofiller!DCAP16HPBWP!x254000y400000
*662 xofiller!DCAP4HPBWP!x286000y400000
*663 xofiller!DCAP4HPBWP!x624000y400000
*664 xofiller!DCAP4HPBWP!x632000y400000
*665 xofiller!DCAP16HPBWP!x656000y400000
*666 xofiller!DCAP4HPBWP!x712000y400000
*667 xofiller!DCAP4HPBWP!x808000y400000
*668 xofiller!DCAP4HPBWP!x816000y400000
*669 xofiller!DCAP16HPBWP!x106000y420000
*670 xofiller!DCAP4HPBWP!x138000y420000
*671 xofiller!DCAP4HPBWP!x146000y420000
*672 xofiller!DCAP4HPBWP!x154000y420000
*673 xofiller!DCAP4HPBWP!x316000y420000
*674 xofiller!DCAP4HPBWP!x398000y420000
*675 xofiller!DCAP16HPBWP!x484000y420000
*676 xofiller!DCAP4HPBWP!x516000y420000
*677 xofiller!DCAP4HPBWP!x524000y420000
*678 xofiller!DCAP4HPBWP!x532000y420000
*679 xofiller!DCAP4HPBWP!x760000y420000
*680 xofiller!DCAP4HPBWP!x784000y420000
*681 xofiller!DCAP4HPBWP!x812000y420000
*682 xofiller!DCAP4HPBWP!x106000y440000
*683 xofiller!DCAP4HPBWP!x114000y440000
*684 xofiller!DCAP4HPBWP!x122000y440000
*685 xofiller!DCAP16HPBWP!x430000y440000
*686 xofiller!DCAP4HPBWP!x480000y440000
*687 xofiller!DCAPHPBWP!x544000y440000
*688 xofiller!DCAP4HPBWP!x554000y440000
*689 xofiller!DCAP4HPBWP!x562000y440000
*690 xofiller!DCAP4HPBWP!x570000y440000
*691 xofiller!DCAP16HPBWP!x202000y460000
*692 xofiller!DCAP4HPBWP!x234000y460000
*693 xofiller!DCAP4HPBWP!x242000y460000
*694 xofiller!DCAP4HPBWP!x338000y460000
*695 xofiller!DCAPHPBWP!x368000y460000
*696 xofiller!DCAP4HPBWP!x422000y460000
*697 xofiller!DCAP4HPBWP!x430000y460000
*698 xofiller!DCAP4HPBWP!x528000y460000
*699 xofiller!DCAP4HPBWP!x782000y460000
*700 xofiller!DCAP4HPBWP!x274000y480000
*701 xofiller!DCAP4HPBWP!x282000y480000
*702 xofiller!DCAPHPBWP!x290000y480000
*703 xofiller!DCAP4HPBWP!x312000y480000
*704 xofiller!DCAP4HPBWP!x320000y480000
*705 xofiller!DCAP4HPBWP!x406000y480000
*706 xofiller!DCAP4HPBWP!x414000y480000
*707 xofiller!DCAP4HPBWP!x554000y480000
*708 xofiller!DCAP16HPBWP!x578000y480000
*709 xofiller!DCAP4HPBWP!x610000y480000
*710 xofiller!DCAP16HPBWP!x694000y480000
*711 xofiller!DCAP4HPBWP!x726000y480000
*712 xofiller!DCAP4HPBWP!x764000y480000
*713 xofiller!DCAP16HPBWP!x106000y500000
*714 xofiller!DCAP4HPBWP!x138000y500000
*715 xofiller!DCAPHPBWP!x146000y500000
*716 xofiller!DCAP16HPBWP!x210000y500000
*717 xofiller!DCAP4HPBWP!x242000y500000
*718 xofiller!DCAP4HPBWP!x254000y500000
*719 xofiller!DCAP4HPBWP!x262000y500000
*720 xofiller!DCAPHPBWP!x404000y500000
*721 xofiller!DCAP16HPBWP!x468000y500000
*722 xofiller!DCAP4HPBWP!x500000y500000
*723 xofiller!DCAP4HPBWP!x508000y500000
*724 xofiller!DCAP4HPBWP!x674000y500000
*725 xofiller!DCAP4HPBWP!x682000y500000
*726 xofiller!DCAP4HPBWP!x690000y500000
*727 xofiller!DCAP4HPBWP!x738000y500000
*728 xofiller!DCAP4HPBWP!x746000y500000
*729 xofiller!DCAP16HPBWP!x106000y520000
*730 xofiller!DCAP16HPBWP!x138000y520000
*731 xofiller!DCAP16HPBWP!x170000y520000
*732 xofiller!DCAP4HPBWP!x290000y520000
*733 xofiller!DCAP4HPBWP!x298000y520000
*734 xofiller!DCAP16HPBWP!x404000y520000
*735 xofiller!DCAP16HPBWP!x436000y520000
*736 xofiller!DCAP16HPBWP!x468000y520000
*737 xofiller!DCAP4HPBWP!x500000y520000
*738 xofiller!DCAP16HPBWP!x516000y520000
*739 xofiller!DCAP4HPBWP!x554000y520000
*740 xofiller!DCAP4HPBWP!x562000y520000
*741 xofiller!DCAP4HPBWP!x570000y520000
*742 xofiller!DCAP4HPBWP!x660000y520000
*743 xofiller!DCAP16HPBWP!x766000y520000
*744 xofiller!DCAP4HPBWP!x798000y520000
*745 xofiller!DCAP4HPBWP!x806000y520000
*746 xofiller!DCAP4HPBWP!x814000y520000
*747 xofiller!DCAP16HPBWP!x106000y540000
*748 xofiller!DCAP16HPBWP!x138000y540000
*749 xofiller!DCAP16HPBWP!x170000y540000
*750 xofiller!DCAP16HPBWP!x202000y540000
*751 xofiller!DCAP4HPBWP!x234000y540000
*752 xofiller!DCAP4HPBWP!x242000y540000
*753 xofiller!DCAP16HPBWP!x254000y540000
*754 xofiller!DCAP16HPBWP!x286000y540000
*755 xofiller!DCAP16HPBWP!x318000y540000
*756 xofiller!DCAP16HPBWP!x350000y540000
*757 xofiller!DCAP16HPBWP!x382000y540000
*758 xofiller!DCAP16HPBWP!x414000y540000
*759 xofiller!DCAP16HPBWP!x446000y540000
*760 xofiller!DCAP16HPBWP!x478000y540000
*761 xofiller!DCAP16HPBWP!x510000y540000
*762 xofiller!DCAP4HPBWP!x542000y540000
*763 xofiller!DCAP16HPBWP!x554000y540000
*764 xofiller!DCAP16HPBWP!x586000y540000
*765 xofiller!DCAP16HPBWP!x618000y540000
*766 xofiller!DCAP16HPBWP!x650000y540000
*767 xofiller!DCAP4HPBWP!x682000y540000
*768 xofiller!DCAP4HPBWP!x690000y540000
*769 xofiller!DCAP16HPBWP!x704000y540000
*770 xofiller!DCAP16HPBWP!x736000y540000
*771 xofiller!DCAP16HPBWP!x768000y540000
*772 xofiller!DCAP4HPBWP!x800000y540000
*773 xofiller!DCAP4HPBWP!x808000y540000
*774 xofiller!DCAP4HPBWP!x816000y540000
*775 xofiller!FILL1HPBWP!x548000y120000
*776 xofiller!FILL1HPBWP!x170000y140000
*777 xofiller!FILL1HPBWP!x172000y140000
*778 xofiller!FILL1HPBWP!x606000y140000
*779 xofiller!FILL1HPBWP!x674000y140000
*780 xofiller!FILL1HPBWP!x676000y140000
*781 xofiller!FILL1HPBWP!x696000y140000
*782 xofiller!FILL1HPBWP!x698000y140000
*783 xofiller!FILL1HPBWP!x736000y140000
*784 xofiller!FILL1HPBWP!x170000y160000
*785 xofiller!FILL1HPBWP!x172000y160000
*786 xofiller!FILL1HPBWP!x230000y160000
*787 xofiller!FILL1HPBWP!x244000y160000
*788 xofiller!FILL1HPBWP!x364000y160000
*789 xofiller!FILL1HPBWP!x428000y160000
*790 xofiller!FILL1HPBWP!x554000y160000
*791 xofiller!FILL1HPBWP!x688000y160000
*792 xofiller!FILL1HPBWP!x768000y160000
*793 xofiller!FILL1HPBWP!x770000y160000
*794 xofiller!FILL1HPBWP!x822000y160000
*795 xofiller!FILL1HPBWP!x200000y180000
*796 xofiller!FILL1HPBWP!x202000y180000
*797 xofiller!FILL1HPBWP!x248000y180000
*798 xofiller!FILL1HPBWP!x272000y180000
*799 xofiller!FILL1HPBWP!x274000y180000
*800 xofiller!FILL1HPBWP!x414000y180000
*801 xofiller!FILL1HPBWP!x416000y180000
*802 xofiller!FILL1HPBWP!x432000y180000
*803 xofiller!FILL1HPBWP!x466000y180000
*804 xofiller!FILL1HPBWP!x468000y180000
*805 xofiller!FILL1HPBWP!x494000y180000
*806 xofiller!FILL1HPBWP!x696000y180000
*807 xofiller!FILL1HPBWP!x698000y180000
*808 xofiller!FILL1HPBWP!x728000y180000
*809 xofiller!FILL1HPBWP!x138000y200000
*810 xofiller!FILL1HPBWP!x140000y200000
*811 xofiller!FILL1HPBWP!x184000y200000
*812 xofiller!FILL1HPBWP!x264000y200000
*813 xofiller!FILL1HPBWP!x282000y200000
*814 xofiller!FILL1HPBWP!x284000y200000
*815 xofiller!FILL1HPBWP!x340000y200000
*816 xofiller!FILL1HPBWP!x378000y200000
*817 xofiller!FILL1HPBWP!x546000y200000
*818 xofiller!FILL1HPBWP!x548000y200000
*819 xofiller!FILL1HPBWP!x688000y200000
*820 xofiller!FILL1HPBWP!x706000y200000
*821 xofiller!FILL1HPBWP!x708000y200000
*822 xofiller!FILL1HPBWP!x722000y200000
*823 xofiller!FILL1HPBWP!x168000y220000
*824 xofiller!FILL1HPBWP!x262000y220000
*825 xofiller!FILL1HPBWP!x264000y220000
*826 xofiller!FILL1HPBWP!x296000y220000
*827 xofiller!FILL1HPBWP!x320000y220000
*828 xofiller!FILL1HPBWP!x338000y220000
*829 xofiller!FILL1HPBWP!x340000y220000
*830 xofiller!FILL1HPBWP!x358000y220000
*831 xofiller!FILL1HPBWP!x360000y220000
*832 xofiller!FILL1HPBWP!x516000y220000
*833 xofiller!FILL1HPBWP!x518000y220000
*834 xofiller!FILL1HPBWP!x534000y220000
*835 xofiller!FILL1HPBWP!x562000y220000
*836 xofiller!FILL1HPBWP!x598000y220000
*837 xofiller!FILL1HPBWP!x600000y220000
*838 xofiller!FILL1HPBWP!x614000y220000
*839 xofiller!FILL1HPBWP!x616000y220000
*840 xofiller!FILL1HPBWP!x660000y220000
*841 xofiller!FILL1HPBWP!x662000y220000
*842 xofiller!FILL1HPBWP!x720000y220000
*843 xofiller!FILL1HPBWP!x722000y220000
*844 xofiller!FILL1HPBWP!x748000y220000
*845 xofiller!FILL1HPBWP!x822000y220000
*846 xofiller!FILL1HPBWP!x106000y240000
*847 xofiller!FILL1HPBWP!x108000y240000
*848 xofiller!FILL1HPBWP!x176000y240000
*849 xofiller!FILL1HPBWP!x178000y240000
*850 xofiller!FILL1HPBWP!x214000y240000
*851 xofiller!FILL1HPBWP!x284000y240000
*852 xofiller!FILL1HPBWP!x332000y240000
*853 xofiller!FILL1HPBWP!x334000y240000
*854 xofiller!FILL1HPBWP!x394000y240000
*855 xofiller!FILL1HPBWP!x416000y240000
*856 xofiller!FILL1HPBWP!x546000y240000
*857 xofiller!FILL1HPBWP!x548000y240000
*858 xofiller!FILL1HPBWP!x604000y240000
*859 xofiller!FILL1HPBWP!x606000y240000
*860 xofiller!FILL1HPBWP!x628000y240000
*861 xofiller!FILL1HPBWP!x702000y240000
*862 xofiller!FILL1HPBWP!x760000y240000
*863 xofiller!FILL1HPBWP!x796000y240000
*864 xofiller!FILL1HPBWP!x798000y240000
*865 xofiller!FILL1HPBWP!x194000y260000
*866 xofiller!FILL1HPBWP!x270000y260000
*867 xofiller!FILL1HPBWP!x344000y260000
*868 xofiller!FILL1HPBWP!x346000y260000
*869 xofiller!FILL1HPBWP!x366000y260000
*870 xofiller!FILL1HPBWP!x368000y260000
*871 xofiller!FILL1HPBWP!x404000y260000
*872 xofiller!FILL1HPBWP!x424000y260000
*873 xofiller!FILL1HPBWP!x496000y260000
*874 xofiller!FILL1HPBWP!x498000y260000
*875 xofiller!FILL1HPBWP!x514000y260000
*876 xofiller!FILL1HPBWP!x516000y260000
*877 xofiller!FILL1HPBWP!x658000y260000
*878 xofiller!FILL1HPBWP!x660000y260000
*879 xofiller!FILL1HPBWP!x736000y260000
*880 xofiller!FILL1HPBWP!x738000y260000
*881 xofiller!FILL1HPBWP!x822000y260000
*882 xofiller!FILL1HPBWP!x388000y280000
*883 xofiller!FILL1HPBWP!x390000y280000
*884 xofiller!FILL1HPBWP!x520000y280000
*885 xofiller!FILL1HPBWP!x638000y280000
*886 xofiller!FILL1HPBWP!x640000y280000
*887 xofiller!FILL1HPBWP!x672000y280000
*888 xofiller!FILL1HPBWP!x674000y280000
*889 xofiller!FILL1HPBWP!x122000y300000
*890 xofiller!FILL1HPBWP!x382000y300000
*891 xofiller!FILL1HPBWP!x408000y300000
*892 xofiller!FILL1HPBWP!x410000y300000
*893 xofiller!FILL1HPBWP!x536000y300000
*894 xofiller!FILL1HPBWP!x598000y300000
*895 xofiller!FILL1HPBWP!x600000y300000
*896 xofiller!FILL1HPBWP!x618000y300000
*897 xofiller!FILL1HPBWP!x666000y300000
*898 xofiller!FILL1HPBWP!x668000y300000
*899 xofiller!FILL1HPBWP!x750000y300000
*900 xofiller!FILL1HPBWP!x752000y300000
*901 xofiller!FILL1HPBWP!x778000y300000
*902 xofiller!FILL1HPBWP!x780000y300000
*903 xofiller!FILL1HPBWP!x820000y300000
*904 xofiller!FILL1HPBWP!x822000y300000
*905 xofiller!FILL1HPBWP!x178000y320000
*906 xofiller!FILL1HPBWP!x446000y320000
*907 xofiller!FILL1HPBWP!x448000y320000
*908 xofiller!FILL1HPBWP!x632000y320000
*909 xofiller!FILL1HPBWP!x634000y320000
*910 xofiller!FILL1HPBWP!x712000y320000
*911 xofiller!FILL1HPBWP!x822000y320000
*912 xofiller!FILL1HPBWP!x172000y340000
*913 xofiller!FILL1HPBWP!x174000y340000
*914 xofiller!FILL1HPBWP!x216000y340000
*915 xofiller!FILL1HPBWP!x234000y340000
*916 xofiller!FILL1HPBWP!x254000y340000
*917 xofiller!FILL1HPBWP!x256000y340000
*918 xofiller!FILL1HPBWP!x274000y340000
*919 xofiller!FILL1HPBWP!x320000y340000
*920 xofiller!FILL1HPBWP!x406000y340000
*921 xofiller!FILL1HPBWP!x422000y340000
*922 xofiller!FILL1HPBWP!x424000y340000
*923 xofiller!FILL1HPBWP!x456000y340000
*924 xofiller!FILL1HPBWP!x458000y340000
*925 xofiller!FILL1HPBWP!x632000y340000
*926 xofiller!FILL1HPBWP!x696000y340000
*927 xofiller!FILL1HPBWP!x698000y340000
*928 xofiller!FILL1HPBWP!x766000y340000
*929 xofiller!FILL1HPBWP!x768000y340000
*930 xofiller!FILL1HPBWP!x822000y340000
*931 xofiller!FILL1HPBWP!x122000y360000
*932 xofiller!FILL1HPBWP!x124000y360000
*933 xofiller!FILL1HPBWP!x162000y360000
*934 xofiller!FILL1HPBWP!x164000y360000
*935 xofiller!FILL1HPBWP!x198000y360000
*936 xofiller!FILL1HPBWP!x200000y360000
*937 xofiller!FILL1HPBWP!x210000y360000
*938 xofiller!FILL1HPBWP!x224000y360000
*939 xofiller!FILL1HPBWP!x226000y360000
*940 xofiller!FILL1HPBWP!x292000y360000
*941 xofiller!FILL1HPBWP!x310000y360000
*942 xofiller!FILL1HPBWP!x312000y360000
*943 xofiller!FILL1HPBWP!x422000y360000
*944 xofiller!FILL1HPBWP!x438000y360000
*945 xofiller!FILL1HPBWP!x454000y360000
*946 xofiller!FILL1HPBWP!x456000y360000
*947 xofiller!FILL1HPBWP!x548000y360000
*948 xofiller!FILL1HPBWP!x784000y360000
*949 xofiller!FILL1HPBWP!x786000y360000
*950 xofiller!FILL1HPBWP!x802000y360000
*951 xofiller!FILL1HPBWP!x804000y360000
*952 xofiller!FILL1HPBWP!x820000y360000
*953 xofiller!FILL1HPBWP!x822000y360000
*954 xofiller!FILL1HPBWP!x178000y380000
*955 xofiller!FILL1HPBWP!x262000y380000
*956 xofiller!FILL1HPBWP!x298000y380000
*957 xofiller!FILL1HPBWP!x300000y380000
*958 xofiller!FILL1HPBWP!x318000y380000
*959 xofiller!FILL1HPBWP!x446000y380000
*960 xofiller!FILL1HPBWP!x520000y380000
*961 xofiller!FILL1HPBWP!x538000y380000
*962 xofiller!FILL1HPBWP!x570000y380000
*963 xofiller!FILL1HPBWP!x604000y380000
*964 xofiller!FILL1HPBWP!x606000y380000
*965 xofiller!FILL1HPBWP!x656000y380000
*966 xofiller!FILL1HPBWP!x682000y380000
*967 xofiller!FILL1HPBWP!x760000y380000
*968 xofiller!FILL1HPBWP!x114000y400000
*969 xofiller!FILL1HPBWP!x116000y400000
*970 xofiller!FILL1HPBWP!x178000y400000
*971 xofiller!FILL1HPBWP!x196000y400000
*972 xofiller!FILL1HPBWP!x382000y400000
*973 xofiller!FILL1HPBWP!x546000y400000
*974 xofiller!FILL1HPBWP!x548000y400000
*975 xofiller!FILL1HPBWP!x586000y400000
*976 xofiller!FILL1HPBWP!x696000y400000
*977 xofiller!FILL1HPBWP!x736000y400000
*978 xofiller!FILL1HPBWP!x784000y400000
*979 xofiller!FILL1HPBWP!x196000y420000
*980 xofiller!FILL1HPBWP!x224000y420000
*981 xofiller!FILL1HPBWP!x248000y420000
*982 xofiller!FILL1HPBWP!x324000y420000
*983 xofiller!FILL1HPBWP!x326000y420000
*984 xofiller!FILL1HPBWP!x378000y420000
*985 xofiller!FILL1HPBWP!x380000y420000
*986 xofiller!FILL1HPBWP!x406000y420000
*987 xofiller!FILL1HPBWP!x408000y420000
*988 xofiller!FILL1HPBWP!x604000y420000
*989 xofiller!FILL1HPBWP!x606000y420000
*990 xofiller!FILL1HPBWP!x636000y420000
*991 xofiller!FILL1HPBWP!x638000y420000
*992 xofiller!FILL1HPBWP!x658000y420000
*993 xofiller!FILL1HPBWP!x820000y420000
*994 xofiller!FILL1HPBWP!x822000y420000
*995 xofiller!FILL1HPBWP!x130000y440000
*996 xofiller!FILL1HPBWP!x132000y440000
*997 xofiller!FILL1HPBWP!x192000y440000
*998 xofiller!FILL1HPBWP!x194000y440000
*999 xofiller!FILL1HPBWP!x234000y440000
*1000 xofiller!FILL1HPBWP!x262000y440000
*1001 xofiller!FILL1HPBWP!x322000y440000
*1002 xofiller!FILL1HPBWP!x366000y440000
*1003 xofiller!FILL1HPBWP!x392000y440000
*1004 xofiller!FILL1HPBWP!x394000y440000
*1005 xofiller!FILL1HPBWP!x410000y440000
*1006 xofiller!FILL1HPBWP!x412000y440000
*1007 xofiller!FILL1HPBWP!x462000y440000
*1008 xofiller!FILL1HPBWP!x464000y440000
*1009 xofiller!FILL1HPBWP!x488000y440000
*1010 xofiller!FILL1HPBWP!x678000y440000
*1011 xofiller!FILL1HPBWP!x680000y440000
*1012 xofiller!FILL1HPBWP!x700000y440000
*1013 xofiller!FILL1HPBWP!x702000y440000
*1014 xofiller!FILL1HPBWP!x738000y440000
*1015 xofiller!FILL1HPBWP!x740000y440000
*1016 xofiller!FILL1HPBWP!x786000y440000
*1017 xofiller!FILL1HPBWP!x800000y440000
*1018 xofiller!FILL1HPBWP!x254000y460000
*1019 xofiller!FILL1HPBWP!x256000y460000
*1020 xofiller!FILL1HPBWP!x274000y460000
*1021 xofiller!FILL1HPBWP!x292000y460000