*SPEF "1481-1998"
*DESIGN "top"
*DATE "Sun May 25 00:43:43 2025"
*VENDOR "Synopsys, Inc."
*PROGRAM "fc /mnt/vol_synopsys2023/synopsys/fusioncompiler/U-2022.12-SP6/linux64/nwtn/bin/dgcom_exec"
*VERSION "U-2022.12-SP6 Aug 25, 2023"
*DESIGN_FLOW "ICC2 SPEF DR"
*DIVIDER /
*DELIMITER :
*BUS_DELIMITER [ ]
*T_UNIT 1 NS
*C_UNIT 1 PF
*R_UNIT 1 KOHM
*L_UNIT 1 HENRY

// XY_UNIT 1 UM
// PARASITIC_TECH RC_Best at 125.000 degree

*NAME_MAP
*1 clk
*2 rst
*3 enable
*4 load
*5 serial_in
*6 mode[1]
*7 mode[0]
*8 parallel_in[7]
*9 parallel_in[6]
*10 parallel_in[5]
*11 parallel_in[4]
*12 parallel_in[3]
*13 parallel_in[2]
*14 parallel_in[1]
*15 parallel_in[0]
*16 serial_out
*17 parallel_out[7]
*18 parallel_out[6]
*19 parallel_out[5]
*20 parallel_out[4]
*21 parallel_out[3]
*22 parallel_out[2]
*23 parallel_out[1]
*24 parallel_out[0]
*25 VDD
*26 VSS
*27 ctmi_272
*28 ctmi_274
*29 reg_data_reg[7]
*30 p3_reg[0]
*31 ctmi_14
*32 ctmi_15
*33 ctmi_16
*34 ctmi_17
*35 reg_data_reg[6]
*36 reg_data_reg[5]
*37 reg_data_reg[4]
*38 p1_reg[1]
*39 p1_reg[0]
*40 p2_reg[1]
*41 p2_reg[0]
*42 ctmi_348
*43 ctmi_351
*44 ctmi_352
*45 phfnr_buf_55
*46 reg_data_reg[1]
*47 reg_data_reg[0]
*48 ctmi_328
*49 ctmi_336
*50 ctmi_342
*51 ctmi_346
*52 ctmi_277
*53 ctmi_280
*54 ctmi_326
*55 ctmi_340
*56 ctmi_327
*57 ctmi_349
*58 ctmi_286
*59 ctmi_341
*60 ctmi_289
*61 ctmi_344
*62 ctmi_315
*63 ctmi_334
*64 ctmi_316
*65 ctmi_294
*66 ctmi_345
*67 ctmi_335
*68 ctmi_297
*69 ctmi_350
*70 ctmi_275
*71 phfnr_buf_56
*72 ctmi_317
*73 reg_data_reg[3]
*74 phfnr_buf_59
*75 ctmi_354
*76 ctmi_355
*77 reg_data_reg[2]
*78 ctmi_283
*79 ctmi_291
*80 phfnr_buf_57
*81 ctmi_278
*82 phfnr_buf_62
*83 ctmi_329
*84 ctmi_343
*85 phfnr_buf_58
*86 phfnr_buf_61
*87 phfnr_buf_60
*88 ctmi_347
*89 ctmi_337
*90 ctmi_287
*91 ctmi_290
*92 ctmi_285
*93 ctmi_292
*94 ctmi_295
*95 ctmi_298
*96 ctmi_319
*97 ctmi_320
*98 ctmi_330
*99 ctmi_331
*100 ctmi_338
*101 ctmi_339
*102 ctmi_288
*103 ctmi_293
*104 ctmi_321
*105 place_optoptlc_2739
*106 place_optctmTdsLR_1_36
*107 ctmi_296
*108 ctmi_299
*109 ctmi_300
*110 ctmi_301
*111 ctmi_302
*112 place_optoptlc_2740
*113 ctmi_305
*114 ctmi_306
*115 ctmi_307
*116 ctmi_308
*117 xofiller!DCAP4HPBWP!x106000y120000
*118 xofiller!DCAP4HPBWP!x240000y120000
*119 ctmi_311
*120 ctmi_251
*121 ctmi_252
*122 ctmi_253
*123 ctmi_254
*124 xofiller!DCAP4HPBWP!x452000y120000
*125 xofiller!DCAP16HPBWP!x106000y140000
*126 xofiller!DCAP16HPBWP!x138000y140000
*127 xofiller!DCAP16HPBWP!x170000y140000
*128 ctmi_258
*129 xofiller!DCAP4HPBWP!x202000y140000
*130 xofiller!DCAP4HPBWP!x210000y140000
*131 ctmi_260
*132 xofiller!DCAP4HPBWP!x218000y140000
*133 xofiller!DCAPHPBWP!x314000y140000
*134 ctmi_263
*135 ctmi_265
*136 xofiller!DCAP16HPBWP!x404000y140000
*137 xofiller!DCAP4HPBWP!x436000y140000
*138 ctmi_267
*139 ctmi_268
*140 ctmi_269
*141 ctmi_270
*142 xofiller!DCAP4HPBWP!x444000y140000
*143 xofiller!DCAP4HPBWP!x452000y140000
*144 ctmi_312
*145 ctmi_313
*146 ctmi_314
*147 ctmi_322
*148 ctmi_323
*149 ctmi_324
*150 ctmi_325
*151 ctmi_333
*152 p3_reg[1]
*153 xofiller!DCAP4HPBWP!x284000y160000
*154 xofiller!DCAP4HPBWP!x336000y160000
*155 xofiller!DCAP4HPBWP!x106000y180000
*156 xofiller!DCAP4HPBWP!x182000y180000
*157 xofiller!DCAP4HPBWP!x190000y180000
*158 xofiller!DCAP4HPBWP!x170000y200000
*159 xofiller!DCAP16HPBWP!x200000y200000
*160 xofiller!DCAP4HPBWP!x232000y200000
*161 xofiller!DCAPHPBWP!x334000y200000
*162 xofiller!DCAP4HPBWP!x444000y200000
*163 xofiller!DCAP4HPBWP!x452000y200000
*164 xofiller!DCAP4HPBWP!x106000y220000
*165 xofiller!DCAP4HPBWP!x254000y220000
*166 xofiller!DCAP4HPBWP!x278000y220000
*167 xofiller!DCAP4HPBWP!x218000y240000
*168 xofiller!DCAP4HPBWP!x262000y240000
*169 xofiller!DCAP4HPBWP!x106000y260000
*170 xofiller!DCAP4HPBWP!x114000y260000
*171 xofiller!DCAP4HPBWP!x142000y260000
*172 xofiller!DCAP4HPBWP!x254000y260000
*173 xofiller!DCAPHPBWP!x300000y260000
*174 xofiller!DCAP16HPBWP!x420000y260000
*175 xofiller!DCAP4HPBWP!x452000y260000
*176 xofiller!DCAP4HPBWP!x326000y280000
*177 xofiller!DCAP4HPBWP!x334000y280000
*178 xofiller!DCAP4HPBWP!x384000y280000
*179 xofiller!DCAP4HPBWP!x392000y280000
*180 xofiller!DCAP16HPBWP!x106000y300000
*181 xofiller!DCAP4HPBWP!x138000y300000
*182 xofiller!DCAP4HPBWP!x146000y300000
*183 clock_gate_reg_data_reg
*184 xofiller!DCAP4HPBWP!x154000y300000
*185 xofiller!DCAP4HPBWP!x230000y300000
*186 xofiller!DCAP4HPBWP!x238000y300000
*187 xofiller!DCAP16HPBWP!x398000y300000
*188 xofiller!DCAP16HPBWP!x430000y300000
*189 xofiller!FILL1HPBWP!x248000y120000
*190 xofiller!FILL1HPBWP!x378000y120000
*191 xofiller!FILL1HPBWP!x380000y120000
*192 xofiller!FILL1HPBWP!x460000y120000
*193 xofiller!FILL1HPBWP!x462000y120000
*194 xofiller!FILL1HPBWP!x226000y140000
*195 xofiller!FILL1HPBWP!x286000y140000
*196 xofiller!FILL1HPBWP!x288000y140000
*197 xofiller!FILL1HPBWP!x326000y140000
*198 xofiller!FILL1HPBWP!x328000y140000
*199 xofiller!FILL1HPBWP!x370000y140000
*200 xofiller!FILL1HPBWP!x372000y140000
*201 xofiller!FILL1HPBWP!x460000y140000
*202 xofiller!FILL1HPBWP!x462000y140000
*203 xofiller!FILL1HPBWP!x106000y160000
*204 xofiller!FILL1HPBWP!x170000y160000
*205 xofiller!FILL1HPBWP!x248000y160000
*206 xofiller!FILL1HPBWP!x250000y160000
*207 xofiller!FILL1HPBWP!x266000y160000
*208 xofiller!FILL1HPBWP!x268000y160000
*209 xofiller!FILL1HPBWP!x308000y160000
*210 xofiller!FILL1HPBWP!x344000y160000
*211 xofiller!FILL1HPBWP!x346000y160000
*212 xofiller!FILL1HPBWP!x462000y160000
*213 xofiller!FILL1HPBWP!x114000y180000
*214 xofiller!FILL1HPBWP!x116000y180000
*215 xofiller!FILL1HPBWP!x198000y180000
*216 xofiller!FILL1HPBWP!x248000y180000
*217 xofiller!FILL1HPBWP!x254000y180000
*218 xofiller!FILL1HPBWP!x324000y180000
*219 xofiller!FILL1HPBWP!x326000y180000
*220 xofiller!FILL1HPBWP!x392000y180000
*221 xofiller!FILL1HPBWP!x394000y180000
*222 xofiller!FILL1HPBWP!x462000y180000
*223 xofiller!FILL1HPBWP!x178000y200000
*224 xofiller!FILL1HPBWP!x180000y200000
*225 xofiller!FILL1HPBWP!x248000y200000
*226 xofiller!FILL1HPBWP!x250000y200000
*227 xofiller!FILL1HPBWP!x354000y200000
*228 xofiller!FILL1HPBWP!x356000y200000
*229 xofiller!FILL1HPBWP!x382000y200000
*230 xofiller!FILL1HPBWP!x396000y200000
*231 xofiller!FILL1HPBWP!x398000y200000
*232 xofiller!FILL1HPBWP!x460000y200000
*233 xofiller!FILL1HPBWP!x462000y200000
*234 xofiller!FILL1HPBWP!x136000y220000
*235 xofiller!FILL1HPBWP!x138000y220000
*236 xofiller!FILL1HPBWP!x164000y220000
*237 xofiller!FILL1HPBWP!x166000y220000
*238 xofiller!FILL1HPBWP!x188000y220000
*239 xofiller!FILL1HPBWP!x190000y220000
*240 xofiller!FILL1HPBWP!x208000y220000
*241 xofiller!FILL1HPBWP!x248000y220000
*242 xofiller!FILL1HPBWP!x262000y220000
*243 xofiller!FILL1HPBWP!x264000y220000
*244 xofiller!FILL1HPBWP!x306000y220000
*245 xofiller!FILL1HPBWP!x322000y220000
*246 xofiller!FILL1HPBWP!x324000y220000
*247 xofiller!FILL1HPBWP!x334000y220000
*248 xofiller!FILL1HPBWP!x336000y220000
*249 xofiller!FILL1HPBWP!x368000y220000
*250 xofiller!FILL1HPBWP!x410000y220000
*251 xofiller!FILL1HPBWP!x106000y240000
*252 xofiller!FILL1HPBWP!x142000y240000
*253 xofiller!FILL1HPBWP!x144000y240000
*254 xofiller!FILL1HPBWP!x162000y240000
*255 xofiller!FILL1HPBWP!x164000y240000
*256 xofiller!FILL1HPBWP!x200000y240000
*257 xofiller!FILL1HPBWP!x270000y240000
*258 xofiller!FILL1HPBWP!x314000y240000
*259 xofiller!FILL1HPBWP!x362000y240000
*260 xofiller!FILL1HPBWP!x364000y240000
*261 xofiller!FILL1HPBWP!x384000y240000
*262 xofiller!FILL1HPBWP!x462000y240000
*263 xofiller!FILL1HPBWP!x150000y260000
*264 xofiller!FILL1HPBWP!x170000y260000
*265 xofiller!FILL1HPBWP!x172000y260000
*266 xofiller!FILL1HPBWP!x214000y260000
*267 xofiller!FILL1HPBWP!x216000y260000
*268 xofiller!FILL1HPBWP!x262000y260000
*269 xofiller!FILL1HPBWP!x324000y260000
*270 xofiller!FILL1HPBWP!x344000y260000
*271 xofiller!FILL1HPBWP!x362000y260000
*272 xofiller!FILL1HPBWP!x364000y260000
*273 xofiller!FILL1HPBWP!x460000y260000
*274 xofiller!FILL1HPBWP!x462000y260000
*275 xofiller!FILL1HPBWP!x172000y280000
*276 xofiller!FILL1HPBWP!x342000y280000
*277 xofiller!FILL1HPBWP!x404000y280000
*278 xofiller!FILL1HPBWP!x162000y300000
*279 xofiller!FILL1HPBWP!x246000y300000
*280 xofiller!FILL1HPBWP!x248000y300000
*281 xofiller!FILL1HPBWP!x300000y300000
*282 xofiller!FILL1HPBWP!x302000y300000
*283 xofiller!FILL1HPBWP!x462000y300000
*284 tapfiller!TAPCELLHPBWP!0
*285 tapfiller!TAPCELLHPBWP!1
*286 tapfiller!TAPCELLHPBWP!2
*287 tapfiller!TAPCELLHPBWP!3
*288 tapfiller!TAPCELLHPBWP!4
*289 tapfiller!TAPCELLHPBWP!5
*290 tapfiller!TAPCELLHPBWP!6
*291 boundarycell!DCAPHPBWP!0
*292 boundarycell!DCAPHPBWP!1
*293 boundarycell!DCAPHPBWP!2
*294 boundarycell!DCAPHPBWP!3
*295 boundarycell!DCAPHPBWP!4
*296 boundarycell!DCAPHPBWP!5
*297 boundarycell!DCAPHPBWP!6
*298 boundarycell!DCAPHPBWP!7
*299 boundarycell!DCAPHPBWP!8
*300 boundarycell!DCAPHPBWP!9
*301 boundarycell!DCAPHPBWP!10
*302 boundarycell!DCAPHPBWP!11
*303 boundarycell!DCAPHPBWP!12
*304 boundarycell!DCAPHPBWP!13
*305 boundarycell!DCAPHPBWP!14
*306 boundarycell!DCAPHPBWP!15
*307 boundarycell!DCAPHPBWP!16
*308 boundarycell!DCAPHPBWP!17
*309 boundarycell!DCAPHPBWP!18
*310 boundarycell!DCAPHPBWP!19
*311 boundarycell!DCAPHPBWP!20
*312 boundarycell!DCAPHPBWP!21
*313 boundarycell!DCAPHPBWP!22
*314 boundarycell!DCAPHPBWP!23
*315 boundarycell!DCAPHPBWP!24
*316 boundarycell!DCAPHPBWP!25
*317 boundarycell!DCAPHPBWP!26
*318 boundarycell!DCAPHPBWP!27
*319 boundarycell!DCAPHPBWP!28
*320 boundarycell!DCAPHPBWP!29
*321 boundarycell!DCAPHPBWP!30
*322 boundarycell!DCAPHPBWP!31
*323 boundarycell!DCAPHPBWP!32
*324 boundarycell!DCAPHPBWP!33
*325 boundarycell!DCAPHPBWP!34
*326 boundarycell!DCAPHPBWP!35
*327 boundarycell!DCAPHPBWP!36
*328 boundarycell!DCAPHPBWP!37
*329 boundarycell!DCAPHPBWP!38
*330 boundarycell!DCAPHPBWP!39
*331 boundarycell!DCAPHPBWP!40
*332 boundarycell!DCAPHPBWP!41
*333 boundarycell!DCAPHPBWP!42
*334 boundarycell!DCAPHPBWP!43
*335 boundarycell!DCAPHPBWP!44
*336 boundarycell!DCAPHPBWP!45
*337 boundarycell!DCAPHPBWP!46
*338 boundarycell!DCAPHPBWP!47
*339 boundarycell!DCAPHPBWP!48
*340 boundarycell!DCAPHPBWP!49
*341 boundarycell!DCAPHPBWP!50
*342 boundarycell!DCAPHPBWP!51
*343 boundarycell!DCAPHPBWP!52
*344 boundarycell!DCAPHPBWP!53
*345 boundarycell!DCAPHPBWP!54
*346 boundarycell!DCAPHPBWP!55
*347 boundarycell!DCAPHPBWP!56
*348 boundarycell!DCAPHPBWP!57
*349 boundarycell!DCAPHPBWP!58
*350 boundarycell!DCAPHPBWP!59
*351 boundarycell!DCAPHPBWP!60
*352 boundarycell!DCAPHPBWP!61
*353 boundarycell!DCAPHPBWP!62
*354 boundarycell!DCAPHPBWP!63
*355 boundarycell!DCAPHPBWP!64
*356 boundarycell!DCAPHPBWP!65
*357 boundarycell!DCAPHPBWP!66
*358 boundarycell!DCAPHPBWP!67
*359 boundarycell!DCAPHPBWP!68
*360 boundarycell!DCAPHPBWP!69
*361 boundarycell!DCAPHPBWP!70
*362 boundarycell!DCAPHPBWP!71
*363 boundarycell!DCAPHPBWP!72
*364 boundarycell!DCAPHPBWP!73
*365 boundarycell!DCAPHPBWP!74
*366 boundarycell!DCAPHPBWP!75
*367 boundarycell!DCAPHPBWP!76
*368 boundarycell!DCAPHPBWP!77
*369 boundarycell!DCAPHPBWP!78
*370 boundarycell!DCAPHPBWP!79
*371 boundarycell!DCAPHPBWP!80
*372 boundarycell!DCAPHPBWP!81
*373 boundarycell!DCAPHPBWP!82
*374 boundarycell!DCAPHPBWP!83
*375 boundarycell!DCAPHPBWP!84
*376 boundarycell!DCAPHPBWP!85
*377 boundarycell!DCAPHPBWP!86
*378 boundarycell!DCAPHPBWP!87
*379 boundarycell!DCAPHPBWP!88
*380 boundarycell!DCAPHPBWP!89
*381 boundarycell!DCAPHPBWP!90
*382 boundarycell!DCAPHPBWP!91
*383 boundarycell!DCAPHPBWP!92
*384 boundarycell!DCAPHPBWP!93
*385 boundarycell!DCAPHPBWP!94
*386 boundarycell!DCAPHPBWP!95
*387 boundarycell!DCAPHPBWP!96
*388 boundarycell!DCAPHPBWP!97
*389 boundarycell!DCAPHPBWP!98
*390 boundarycell!DCAPHPBWP!99
*391 boundarycell!DCAPHPBWP!100
*392 boundarycell!DCAPHPBWP!101
*393 boundarycell!DCAPHPBWP!102
*394 boundarycell!DCAPHPBWP!103
*395 boundarycell!DCAPHPBWP!104
*396 boundarycell!DCAPHPBWP!105
*397 boundarycell!DCAPHPBWP!106
*398 boundarycell!DCAPHPBWP!107
*399 boundarycell!DCAPHPBWP!108
*400 boundarycell!DCAPHPBWP!109
*401 boundarycell!DCAPHPBWP!110
*402 boundarycell!DCAPHPBWP!111
*403 boundarycell!DCAPHPBWP!112
*404 boundarycell!DCAPHPBWP!113
*405 boundarycell!DCAPHPBWP!114
*406 boundarycell!DCAPHPBWP!115
*407 boundarycell!DCAPHPBWP!116
*408 boundarycell!DCAPHPBWP!117
*409 boundarycell!DCAPHPBWP!118
*410 boundarycell!DCAPHPBWP!119
*411 boundarycell!DCAPHPBWP!120
*412 boundarycell!DCAPHPBWP!121
*413 boundarycell!DCAPHPBWP!122
*414 boundarycell!DCAPHPBWP!123
*415 boundarycell!DCAPHPBWP!124
*416 boundarycell!DCAPHPBWP!125
*417 boundarycell!DCAPHPBWP!126
*418 boundarycell!DCAPHPBWP!127
*419 boundarycell!DCAPHPBWP!128
*420 boundarycell!DCAPHPBWP!129
*421 boundarycell!DCAPHPBWP!130
*422 boundarycell!DCAPHPBWP!131
*423 boundarycell!DCAPHPBWP!132
*424 boundarycell!DCAPHPBWP!133
*425 boundarycell!DCAPHPBWP!134
*426 boundarycell!DCAPHPBWP!135
*427 boundarycell!DCAPHPBWP!136
*428 boundarycell!DCAPHPBWP!137
*429 boundarycell!DCAPHPBWP!138
*430 boundarycell!DCAPHPBWP!139
*431 boundarycell!DCAPHPBWP!140
*432 boundarycell!DCAPHPBWP!141
*433 tapfiller!TAPCELLHPBWP!7
*434 tapfiller!TAPCELLHPBWP!8
*435 tapfiller!TAPCELLHPBWP!9
*436 tapfiller!TAPCELLHPBWP!10
*437 tapfiller!TAPCELLHPBWP!11
*438 tapfiller!TAPCELLHPBWP!12
*439 phfnn_30
*440 phfnn_31
*441 phfnn_35
*442 ctmn_288
*443 ctmn_300
*444 phfnn_32
*445 ctmn_289
*446 ctmn_254
*447 N7
*448 N8
*449 p3[1]
*450 phfnn_33
*451 N9
*452 p3[0]
*453 N10
*454 reg_data[7]
*455 N11
*456 reg_data[6]
*457 N12
*458 reg_data[5]
*459 N13
*460 reg_data[4]
*461 N14
*462 reg_data[3]
*463 N15
*464 reg_data[2]
*465 N16
*466 reg_data[1]
*467 N17
*468 reg_data[0]
*469 N18
*470 p1[1]
*471 N19
*472 p1[0]
*473 N20
*474 p2[1]
*475 N21
*476 p2[0]
*477 ctmn_301
*478 ctmn_256
*479 ctmn_302
*480 ctmn_303
*481 ctmn_304
*482 ctmn_278
*483 ctmn_305
*484 ctmn_295
*485 ctmn_279
*486 ctmn_259
*487 phfnn_37
*488 ctmn_296
*489 ctmn_261
*490 ctmn_297
*491 ctmn_247
*492 phfnn_34
*493 ctmn_281
*494 phfnn_36
*495 ctmn_291
*496 ctmn_298
*497 ctmn_249
*498 ctmn_252
*499 ctmn_253
*500 ctmn_257
*501 ctmn_258
*502 ctmn_251
*503 ctmn_255
*504 ctmn_260
*505 ctmn_262
*506 ctmn_264
*507 ctmn_282
*508 ctmn_283
*509 ctmn_292
*510 ctmn_293
*511 ctmn_299
*512 ctmn_265
*513 ctmn_266
*514 ctmn_267
*515 optlc_net_44
*516 ctmn_269
*517 ctmn_270
*518 ctmn_271
*519 ctmn_272
*520 ctmn_273
*521 ctmn_274
*522 ctmn_225
*523 ctmn_226
*524 ctmn_227
*525 ctmn_228
*526 ctmn_229
*527 ctmn_230
*528 ctmn_231
*529 ctmn_232
*530 ctmn_233
*531 optlc_net_45
*532 ctmn_234
*533 ctmn_235
*534 ctmn_236
*535 ctmn_237
*536 ctmn_238
*537 ctmn_239
*538 ctmn_240
*539 ctmn_241
*540 ctmn_242
*541 ctmn_243
*542 ctmn_275
*543 ctmn_276
*544 ctmn_277
*545 ctmn_284
*546 ctmn_285
*547 ctmn_286
*548 ctmn_287
*549 ctmn_294
*550 clk_clock_gate_reg_data_reg

*PORTS

*1 I *C 56.740 40.200
*2 I *C 56.740 36.600
*3 I *C 56.740 33.200
*4 I *C 56.740 29.800
*5 I *C 56.740 31.200
*6 I *C 56.740 27.000
*7 I *C 56.740 22.800
*8 I *C 56.740 18.600
*9 I *C 56.740 14.400
*10 I *C 56.740 10.200
*11 I *C 56.740 6.000
*12 I *C 56.740 1.800
*13 I *C 56.740 41.000
*14 I *C 56.740 36.800
*15 I *C 0.260 39.600
*16 O *C 0.260 35.400
*17 O *C 0.260 31.200
*18 O *C 0.260 27.000
*19 O *C 0.260 22.800
*20 O *C 0.260 18.600
*21 O *C 0.260 14.400
*22 O *C 0.260 10.200
*23 O *C 0.260 6.000
*24 O *C 0.260 1.800
*25 I *C 28.500 22.000
*26 I *C 28.500 22.000

*D_NET *6 0.004130787 //LENGTH 31.740 LUMPCC 0 DR

*CONN
*P *6 I *L 0 *C 56.700 27.000
*I *113:A1 I *L 0.001095 *C 34.850 28.860
*I *31:A2 I *L 0.001091 *C 31.230 27.100
*I *45:I I *L 0.000898 *C 32.000 27.062
*N *6:4 *C 32.000 26.945
*N *6:5 *C 32.000 26.945
*N *6:6 *C 31.200 27.100
*N *6:7 *C 31.200 27.100
*N *6:8 *C 32.000 27.000
*N *6:9 *C 32.000 27.800
*N *6:10 *C 32.250 27.800
*N *6:11 *C 32.370 27.800
*N *6:12 *C 34.805 28.810
*N *6:13 *C 34.800 28.400
*N *6:14 *C 33.800 28.400
*N *6:15 *C 33.800 27.970
*N *6:16 *C 33.780 27.800
*N *6:17 *C 33.800 27.900
*N *6:18 *C 34.800 27.800
*N *6:19 *C 34.800 27.170
*N *6:20 *C 34.800 27.100
*N *6:21 *C 56.600 27.100
*N *6:22 *C 56.600 27.100
*N *6:23 *C 56.700 27.000

*CAP
0 *6 1e-06
1 *113:A1 1e-06
2 *31:A2 1.794625e-05
3 *45:I 4.742539e-05
4 *6:4 4.742539e-05
5 *6:5 4.117458e-06
6 *6:6 1.794625e-05
7 *6:7 9.269278e-05
8 *6:8 0.0001453066
9 *6:9 0.0001139933
10 *6:10 4.280086e-05
11 *6:11 0.0001352485
12 *6:12 4.793608e-05
13 *6:13 0.0001410092
14 *6:14 0.0001596804
15 *6:15 6.660724e-05
16 *6:16 0.0001352485
17 *6:17 8.939037e-05
18 *6:18 0.0001539728
19 *6:19 8.202578e-05
20 *6:20 0.001280405
21 *6:21 0.001259404
22 *6:22 2.120491e-05
23 *6:23 2.699937e-05

*RES
0 *6 *6:23 0.0002367922
1 *6:15 *6:14 0.0003650341
2 *6:16 *6:15 0.0002367922
3 *6:16 *6:11 0.001135607
4 *6:12 *113:A1 0.0002367922
5 *6:17 *6:16 0.0002367922
6 *6:19 *6:18 0.0005795566
7 *6:20 *6:19 0.0002367922
8 *6:22 *6:21 0.0002367922
9 *6:21 *6:20 0.01813154
10 *6:23 *6:22 7.998774e-05
11 *6:10 *6:9 0.0002005821
12 *6:11 *6:10 0.0002367922
13 *6:4 *45:I 0.0002190515
14 *6:5 *6:4 0.0002367922
15 *6:6 *31:A2 1.736173e-05
16 *6:7 *6:6 0.0002367922
17 *6:8 *6:7 0.0006418626
18 *6:8 *6:5 1e-06
19 *6:9 *6:8 0.0006452334
20 *6:14 *6:13 0.0008333187
21 *6:13 *6:12 0.0003448174
22 *6:18 *6:17 0.0007998776

*END

*D_NET *7 0.007207136 //LENGTH 43.195 LUMPCC 0 DR

*CONN
*P *7 I *L 0 *C 56.530 22.800
*I *115:A1 I *L 0.000775 *C 33.045 23.223
*I *71:I I *L 0.000898 *C 29.250 23.088
*I *151:A2 I *L 0.000714 *C 27.365 28.800
*I *27:B1 I *L 0.001027 *C 26.510 27.000
*N *7:5 *C 26.500 27.000
*N *7:6 *C 26.600 27.830
*N *7:7 *C 26.600 27.900
*N *7:8 *C 27.400 28.800
*N *7:9 *C 27.400 28.780
*N *7:10 *C 27.400 27.970
*N *7:11 *C 27.380 27.800
*N *7:12 *C 27.400 27.830
*N *7:13 *C 27.400 23.370
*N *7:14 *C 27.400 23.300
*N *7:15 *C 29.200 23.335
*N *7:16 *C 29.200 23.055
*N *7:17 *C 29.200 23.170
*N *7:18 *C 29.200 23.100
*N *7:19 *C 30.000 22.900
*N *7:20 *C 30.000 22.830
*N *7:21 *C 30.000 22.930
*N *7:22 *C 30.000 23.100
*N *7:23 *C 33.000 23.345
*N *7:24 *C 33.000 23.345
*N *7:25 *C 33.000 23.500
*N *7:26 *C 32.900 23.400
*N *7:27 *C 32.900 23.400
*N *7:28 *C 33.000 23.500
*N *7:29 *C 33.000 23.500
*N *7:30 *C 33.000 23.430
*N *7:31 *C 33.000 23.170
*N *7:32 *C 33.000 23.100
*N *7:33 *C 33.200 23.000
*N *7:34 *C 33.200 22.800
*N *7:35 *C 48.800 22.900
*N *7:36 *C 48.800 22.900
*N *7:37 *C 48.900 22.800
*N *7:38 *C 48.970 22.800

*CAP
0 *7 0.0003472837
1 *115:A1 4.382598e-05
2 *71:I 3.863794e-05
3 *151:A2 1.463614e-05
4 *27:B1 1e-06
5 *7:5 0.0001499906
6 *7:6 0.0001107766
7 *7:7 0.0001036818
8 *7:8 1.463614e-05
9 *7:9 0.0001118772
10 *7:10 0.0001118772
11 *7:11 7.206232e-05
12 *7:12 0.0004422356
13 *7:13 0.0004422356
14 *7:14 0.0003519567
15 *7:15 3.214737e-05
16 *7:16 3.863794e-05
17 *7:17 3.214737e-05
18 *7:18 0.0001030646
19 *7:19 0.0001029766
20 *7:20 9.66463e-05
21 *7:21 9.66463e-05
22 *7:22 0.0006490321
23 *7:23 4.382598e-05
24 *7:24 2.115285e-05
25 *7:25 6.106231e-05
26 *7:26 4.724581e-05
27 *7:27 9.507834e-05
28 *7:28 6.593967e-05
29 *7:29 2.532233e-05
30 *7:30 4.326362e-05
31 *7:31 4.326362e-05
32 *7:32 0.0003395816
33 *7:33 4.327812e-05
34 *7:34 0.001235962
35 *7:35 0.001227178
36 *7:36 2.62543e-05
37 *7:37 3.343036e-05
38 *7:38 0.0003472837

*RES
0 *7 *7:38 0.006066691
1 *7:36 *7:35 0.0002367922
2 *7:35 *7:34 0.0146836
3 *7:38 *7:37 0.0002367922
4 *7:37 *7:36 7.998283e-05
5 *7:32 *7:31 0.0002367922
6 *7:32 *7:22 0.003028656
7 *7:31 *7:30 0.0002079681
8 *7:29 *7:28 0.0002367922
9 *7:30 *7:29 0.0002367922
10 *7:28 *7:27 0.0001239563
11 *7:26 *7:25 8.051118e-05
12 *7:27 *7:26 0.0002367922
13 *7:24 *7:23 0.0002367922
14 *7:25 *7:24 0.0002367922
15 *7:23 *115:A1 0.0002079145
16 *7:21 *7:20 0.0001305388
17 *7:22 *7:21 0.0002367922
18 *7:22 *7:14 0.003130669
19 *7:19 *7:18 0.0006440995
20 *7:20 *7:19 0.0002367922
21 *7:17 *7:16 0.0002367922
22 *7:17 *7:15 0.0001323842
23 *7:18 *7:17 0.0002367922
24 *7:16 *71:I 0.0002084547
25 *7:10 *7:9 0.0007298111
26 *7:11 *7:10 0.0002367922
27 *7:11 *7:7 0.0006383806
28 *7:8 *151:A2 4.286477e-05
29 *7:9 *7:8 0.0004735845
30 *7:13 *7:12 0.004070006
31 *7:14 *7:13 0.0002367922
32 *7:12 *7:11 0.0002367922
33 *7:6 *7:5 0.0007539967
34 *7:7 *7:6 0.0002367922
35 *7:5 *27:B1 0.0002367922
36 *7:33 *7:32 0.0001864177
37 *7:34 *7:33 0.0001848101

*END

*D_NET *8 0.005529617 //LENGTH 40.745 LUMPCC 0 DR

*CONN
*P *8 I *L 0 *C 56.530 18.600
*I *98:B2 I *L 0.001065 *C 25.105 25.100
*N *8:2 *C 25.105 25.100
*N *8:3 *C 24.800 25.300
*N *8:4 *C 24.800 25.300
*N *8:5 *C 24.400 25.300
*N *8:6 *C 24.400 25.230
*N *8:7 *C 24.500 25.000
*N *8:8 *C 24.570 25.000
*N *8:9 *C 54.800 25.100
*N *8:10 *C 54.800 25.030
*N *8:11 *C 54.900 18.600
*N *8:12 *C 54.970 18.600

*CAP
0 *8 6.777806e-05
1 *98:B2 1e-06
2 *8:2 5.937153e-05
3 *8:3 5.782521e-05
4 *8:4 7.908397e-05
5 *8:5 7.908397e-05
6 *8:6 4.696116e-05
7 *8:7 8.629317e-05
8 *8:8 0.00225035
9 *8:9 0.002263997
10 *8:10 0.0002281415
11 *8:11 0.0002419542
12 *8:12 6.777806e-05

*RES
0 *8 *8:12 0.001251105
1 *8:2 *98:B2 0.0002367922
2 *8:3 *8:2 0.0002608688
3 *8:4 *8:3 0.0002367922
4 *8:5 *8:4 0.0003593143
5 *8:6 *8:5 0.0002367922
6 *8:7 *8:6 0.0001839708
7 *8:8 *8:7 0.0002367922
8 *8:10 *8:9 0.0002367922
9 *8:9 *8:8 0.02964252
10 *8:12 *8:11 0.0002367922
11 *8:11 *8:10 0.005143086

*END

*D_NET *9 0.004792984 //LENGTH 43.370 LUMPCC 0 DR

*CONN
*P *9 I *L 0 *C 56.530 14.400
*I *144:C2 I *L 0.001104 *C 26.100 18.900
*N *9:2 *C 26.150 19.020
*N *9:3 *C 26.200 19.200
*N *9:4 *C 26.600 19.200
*N *9:5 *C 26.600 15.970
*N *9:6 *C 26.600 15.900
*N *9:7 *C 26.400 15.800
*N *9:8 *C 26.400 15.780
*N *9:9 *C 26.400 11.370
*N *9:10 *C 26.400 11.300
*N *9:11 *C 55.200 11.300
*N *9:12 *C 55.200 11.370
*N *9:13 *C 55.300 14.400
*N *9:14 *C 55.370 14.400

*CAP
0 *9 5.845922e-05
1 *144:C2 1e-06
2 *9:2 3.195242e-05
3 *9:3 7.539522e-05
4 *9:4 0.0004811032
5 *9:5 0.0004376604
6 *9:6 7.793579e-05
7 *9:7 4.120613e-05
8 *9:8 0.0003562856
9 *9:9 0.0003562856
10 *9:10 0.001229276
11 *9:11 0.001223381
12 *9:12 0.0001730578
13 *9:13 0.0001915261
14 *9:14 5.845922e-05

*RES
0 *9 *9:14 0.0009302964
1 *9:2 *144:C2 0.0002367922
2 *9:5 *9:4 0.003888331
3 *9:6 *9:5 0.0002367922
4 *9:7 *9:6 0.0001770058
5 *9:8 *9:7 0.0004735845
6 *9:9 *9:8 0.003935221
7 *9:10 *9:9 0.0002367922
8 *9:12 *9:11 0.0002367922
9 *9:11 *9:10 0.02303655
10 *9:14 *9:13 0.0002367922
11 *9:13 *9:12 0.002423533
12 *9:3 *9:2 0.0001786368
13 *9:4 *9:3 0.0003549762

*END

*D_NET *10 0.004195339 //LENGTH 37.710 LUMPCC 0 DR

*CONN
*P *10 I *L 0 *C 56.700 10.200
*I *145:B2 I *L 0.001065 *C 25.910 14.900
*N *10:2 *C 25.910 14.900
*N *10:3 *C 26.200 15.000
*N *10:4 *C 26.200 15.350
*N *10:5 *C 26.160 15.400
*N *10:6 *C 27.230 15.400
*N *10:7 *C 27.300 15.400
*N *10:8 *C 27.200 10.370
*N *10:9 *C 27.200 10.300
*N *10:10 *C 56.600 10.300
*N *10:11 *C 56.600 10.300
*N *10:12 *C 56.700 10.200

*CAP
0 *10 1e-06
1 *145:B2 1e-06
2 *10:2 5.875863e-05
3 *10:3 0.0001044339
4 *10:4 6.846815e-05
5 *10:5 0.0001673329
6 *10:6 0.0001465905
7 *10:7 0.0005548636
8 *10:8 0.0005072611
9 *10:9 0.001277398
10 *10:10 0.001260028
11 *10:11 2.120491e-05
12 *10:12 2.699937e-05

*RES
0 *10 *10:12 0.0002367922
1 *10:2 *145:B2 0.0002367922
2 *10:4 *10:3 0.0003739445
3 *10:5 *10:4 0.0002367922
4 *10:6 *10:5 0.001126958
5 *10:7 *10:6 0.0002367922
6 *10:8 *10:7 0.005016827
7 *10:9 *10:8 0.0002367922
8 *10:11 *10:10 0.0002367922
9 *10:10 *10:9 0.02351649
10 *10:12 *10:11 7.998774e-05
11 *10:3 *10:2 0.0002645542

*END

*D_NET *11 0.00360368 //LENGTH 39.530 LUMPCC 0 DR

*CONN
*P *11 I *L 0 *C 56.700 6.000
*I *111:B2 I *L 0.001065 *C 27.510 15.000
*N *11:2 *C 27.510 15.000
*N *11:3 *C 27.400 14.910
*N *11:4 *C 27.400 13.570
*N *11:5 *C 27.400 13.500
*N *11:6 *C 27.400 13.430
*N *11:7 *C 27.400 6.170
*N *11:8 *C 27.400 6.100
*N *11:9 *C 56.600 6.100
*N *11:10 *C 56.600 6.100
*N *11:11 *C 56.700 6.000

*CAP
0 *11 1e-06
1 *111:B2 1e-06
2 *11:2 2.041215e-05
3 *11:3 0.0001844529
4 *11:4 0.0001640407
5 *11:5 3.136451e-05
6 *11:6 0.0005337824
7 *11:7 0.0005337824
8 *11:8 0.001043246
9 *11:9 0.001042395
10 *11:10 2.120475e-05
11 *11:11 2.699902e-05

*RES
0 *11 *11:11 0.0002367922
1 *11:2 *111:B2 0.0004735845
2 *11:4 *11:3 0.001172143
3 *11:5 *11:4 0.0002367922
4 *11:6 *11:5 0.0002367922
5 *11:7 *11:6 0.006589971
6 *11:8 *11:7 0.0002367922
7 *11:10 *11:9 0.0002367922
8 *11:9 *11:8 0.02335721
9 *11:11 *11:10 7.998729e-05
10 *11:3 *11:2 7.729443e-05

*END

*D_NET *12 0.003949899 //LENGTH 38.840 LUMPCC 0 DR

*CONN
*P *12 I *L 0 *C 56.530 1.800
*I *101:C2 I *L 0.001104 *C 33.500 14.900
*N *12:2 *C 33.500 14.900
*N *12:3 *C 33.400 15.100
*N *12:4 *C 33.400 15.100
*N *12:5 *C 33.400 15.300
*N *12:6 *C 33.400 15.370
*N *12:7 *C 33.500 15.600
*N *12:8 *C 33.570 15.600
*N *12:9 *C 54.800 15.700
*N *12:10 *C 54.800 15.630
*N *12:11 *C 54.900 1.800
*N *12:12 *C 54.970 1.800

*CAP
0 *12 6.645543e-05
1 *101:C2 1e-06
2 *12:2 5.392657e-05
3 *12:3 5.366586e-05
4 *12:4 4.584953e-05
5 *12:5 4.948679e-05
6 *12:6 5.701467e-05
7 *12:7 9.487337e-05
8 *12:8 0.001176484
9 *12:9 0.001189423
10 *12:10 0.000540726
11 *12:11 0.0005545377
12 *12:12 6.645543e-05

*RES
0 *12 *12:12 0.001250809
1 *12:2 *101:C2 0.0002367922
2 *12:3 *12:2 0.0001633946
3 *12:4 *12:3 0.0002367922
4 *12:5 *12:4 0.000138943
5 *12:6 *12:5 0.0002367922
6 *12:7 *12:6 0.0002308152
7 *12:8 *12:7 0.0002367922
8 *12:10 *12:9 0.0002367922
9 *12:9 *12:8 0.01797681
10 *12:12 *12:11 0.0002367922
11 *12:11 *12:10 0.01106185

*END

*D_NET *13 0.004057267 //LENGTH 36.810 LUMPCC 0 DR

*CONN
*P *13 I *L 0 *C 56.700 41.000
*I *64:B2 I *L 0.001065 *C 35.110 26.800
*N *13:2 *C 35.110 26.800
*N *13:3 *C 35.175 26.800
*N *13:4 *C 35.220 26.800
*N *13:5 *C 36.600 26.900
*N *13:6 *C 36.600 26.970
*N *13:7 *C 36.600 38.630
*N *13:8 *C 36.600 38.700
*N *13:9 *C 56.600 38.700
*N *13:10 *C 56.600 38.770
*N *13:11 *C 56.700 41.000

*CAP
0 *13 1e-06
1 *64:B2 1e-06
2 *13:2 2.695788e-05
3 *13:3 2.695788e-05
4 *13:4 0.0001441256
5 *13:5 0.0001756028
6 *13:6 0.001037923
7 *13:7 0.001037923
8 *13:8 0.0007075556
9 *13:9 0.0007054058
10 *13:10 8.972875e-05
11 *13:11 0.0001030862

*RES
0 *13 *13:11 0.0002367922
1 *13:2 *64:B2 0.0004735845
2 *13:3 *13:2 4.530733e-05
3 *13:4 *13:3 0.0004735845
4 *13:5 *13:4 0.001287327
5 *13:6 *13:5 0.0002367922
6 *13:7 *13:6 0.01150828
7 *13:8 *13:7 0.0002367922
8 *13:10 *13:9 0.0002367922
9 *13:9 *13:8 0.01599683
10 *13:11 *13:10 0.001783727

*END

*D_NET *14 0.005296911 //LENGTH 35.140 LUMPCC 0 DR

*CONN
*P *14 I *L 0 *C 56.530 36.800
*I *148:C2 I *L 0.001104 *C 34.900 25.100
*N *14:2 *C 34.950 25.120
*N *14:3 *C 35.000 25.600
*N *14:4 *C 35.200 25.700
*N *14:5 *C 35.200 25.700
*N *14:6 *C 36.800 25.500
*N *14:7 *C 36.800 25.570
*N *14:8 *C 36.800 36.830
*N *14:9 *C 36.800 36.900
*N *14:10 *C 56.200 36.900
*N *14:11 *C 56.200 36.900
*N *14:12 *C 56.100 36.800
*N *14:13 *C 56.170 36.800

*CAP
0 *14 3.470247e-05
1 *148:C2 1e-06
2 *14:2 8.373321e-05
3 *14:3 0.0001098786
4 *14:4 4.845778e-05
5 *14:5 0.0001853413
6 *14:6 0.0001852692
7 *14:7 0.001086252
8 *14:8 0.001086252
9 *14:9 0.001188893
10 *14:10 0.001193406
11 *14:11 2.545517e-05
12 *14:12 3.356798e-05
13 *14:13 3.470247e-05

*RES
0 *14 *14:13 0.0003216152
1 *14:2 *148:C2 0.0002367922
2 *14:4 *14:3 0.0001746375
3 *14:5 *14:4 0.0002367922
4 *14:6 *14:5 0.001488116
5 *14:7 *14:6 0.0002367922
6 *14:8 *14:7 0.01119807
7 *14:9 *14:8 0.0002367922
8 *14:11 *14:10 0.0002367922
9 *14:10 *14:9 0.01768897
10 *14:13 *14:12 0.0002367922
11 *14:12 *14:11 7.998775e-05
12 *14:3 *14:2 0.0005609929

*END

*D_NET *15 0.005399291 //LENGTH 44.235 LUMPCC 0 DR

*CONN
*P *15 I *L 0 *C 0.500 39.600
*I *149:B2 I *L 0.001065 *C 28.905 26.900
*N *15:2 *C 28.905 26.900
*N *15:3 *C 28.200 26.800
*N *15:4 *C 28.200 26.615
*N *15:5 *C 28.200 26.545
*N *15:6 *C 27.803 26.400
*N *15:7 *C 27.800 26.445
*N *15:8 *C 27.800 26.065
*N *15:9 *C 27.800 26.230
*N *15:10 *C 27.800 26.300
*N *15:11 *C 27.200 26.300
*N *15:12 *C 27.200 26.370
*N *15:13 *C 27.200 27.030
*N *15:14 *C 27.200 27.100
*N *15:15 *C 0.400 27.100
*N *15:16 *C 0.400 27.170
*N *15:17 *C 0.500 39.600

*CAP
0 *15 1e-06
1 *149:B2 1e-06
2 *15:2 9.544872e-05
3 *15:3 0.0001198167
4 *15:4 4.845256e-05
5 *15:5 7.115125e-05
6 *15:6 5.041346e-05
7 *15:7 4.127562e-05
8 *15:8 4.413402e-05
9 *15:9 8.540964e-05
10 *15:10 0.0001013249
11 *15:11 0.0001013249
12 *15:12 0.000149281
13 *15:13 0.000149281
14 *15:14 0.001740828
15 *15:15 0.001726599
16 *15:16 0.0004296957
17 *15:17 0.0004428542

*RES
0 *15 *15:17 0.0002367922
1 *15:2 *149:B2 0.0002367922
2 *15:5 *15:4 0.0002367922
3 *15:4 *15:3 0.0001705131
4 *15:6 *15:5 0.0004565262
5 *15:7 *15:6 0.0004735845
6 *15:9 *15:8 0.0001710345
7 *15:9 *15:7 0.0002228631
8 *15:10 *15:9 0.0002367922
9 *15:11 *15:10 0.0005337846
10 *15:12 *15:11 0.0002367922
11 *15:13 *15:12 0.0008325872
12 *15:14 *15:13 0.0002367922
13 *15:16 *15:15 0.0002367922
14 *15:15 *15:14 0.02362205
15 *15:17 *15:16 0.009941861
16 *15:3 *15:2 0.000593692

*END

*D_NET *17 0.00382677 //LENGTH 32.760 LUMPCC 0 DR

*CONN
*I *65:ZN O *L 0 *C 24.250 27.500
*I *42:A2 I *L 0.001031 *C 19.850 26.845
*P *17 O *L 0 *C 0.470 31.200
*N *17:3 *C 5.030 31.200
*N *17:4 *C 5.100 31.200
*N *17:5 *C 5.000 27.970
*N *17:6 *C 5.000 27.900
*N *17:7 *C 19.700 26.800
*N *17:8 *C 19.650 26.800
*N *17:9 *C 18.800 26.700
*N *17:10 *C 18.800 26.700
*N *17:11 *C 18.800 26.770
*N *17:12 *C 18.800 27.830
*N *17:13 *C 18.800 27.900
*N *17:14 *C 24.200 27.700
*N *17:15 *C 24.200 27.630
*N *17:16 *C 24.300 27.400
*N *17:17 *C 24.180 27.400
*N *17:18 *C 24.180 27.400
*N *17:19 *C 24.200 27.380
*N *17:20 *C 24.200 27.380
*N *17:21 *C 24.200 27.500

*CAP
0 *65:ZN 2.010632e-05
1 *42:A2 2.688802e-05
2 *17 0.0001951503
3 *17:3 0.0001951503
4 *17:4 0.0001641174
5 *17:5 0.0001482405
6 *17:6 0.0007561687
7 *17:7 2.688802e-05
8 *17:8 9.784092e-05
9 *17:9 0.0001195891
10 *17:10 3.282036e-05
11 *17:11 0.0001433311
12 *17:12 0.0001433311
13 *17:13 0.001054312
14 *17:14 0.000315723
15 *17:15 5.305158e-05
16 *17:16 8.936515e-05
17 *17:17 2.43827e-05
18 *17:18 2.43827e-05
19 *17:19 8.791209e-05
20 *17:20 8.791209e-05
21 *17:21 2.010632e-05

*RES
0 *65:ZN *17:21 1.738143e-05
1 *17:15 *17:14 0.0002367922
2 *17:14 *17:13 0.004382651
3 *17:17 *17:16 0.0002367922
4 *17:16 *17:15 0.0002199707